version 3
run Test1-0-20250312-15:21:16-2659
attr configname Test1
attr datetime 20250312-15:21:16
attr datetimef 20250312-152116
attr experiment Test1
attr inifile omnetpp.ini
attr iterationvars ""
attr iterationvarsd ""
attr iterationvarsf ""
attr measurement ""
attr network networkwireless
attr processid 2659
attr repetition 0
attr replication #0
attr resultdir results
attr runnumber 0
attr seedset 0
config image-path ../../../inet4.5/images
config description "Test de répartition normale des clients"
config *.numHosts 5
config network networkwireless
config **.constraintAreaMinX 0m
config **.constraintAreaMinY 0m
config **.constraintAreaMaxX 600m
config **.constraintAreaMaxY 400m
config **.accessPoint.wlan[*].address "\"10:00:00:00:00:01\""
config **.accessPoint1.wlan[*].address "\"10:00:00:00:00:02\""
config **.accessPoint2.wlan[*].address "\"10:00:00:00:00:03\""
config **.accessPoint.wlan[*].ssid "\"MyWiFi\""
config **.accessPoint1.wlan[*].ssid "\"MyWiFi\""
config **.accessPoint2.wlan[*].ssid "\"MyWiFi\""
config **.accessPoint.wlan[*].channelNumber 1
config **.accessPoint1.wlan[*].channelNumber 6
config **.accessPoint2.wlan[*].channelNumber 11
config **.wirelessHost*.mgmt.accessPointSelection "\"LoadBalancing\""
config **.wirelessHost*.mobility.typename MassMobility
config **.wirelessHost*.mobility.speed "truncnormal(15mps, 5mps)"
config **.wirelessHost*.mobility.updateInterval 100ms
config **.wlan[*].bitrate 54Mbps
config **.wlan[*].radio.transmitter.power 20mW
config **.wlan[*].radio.receiver.sensitivity -85dBm
config **.wlan[*].radio.receiver.snirThreshold 4dB
config **.numApps 1
config **.app[0].typename PingApp
config *.wirelessHost1.app[0].destAddr "\"wirelessHost2\""
config *.wirelessHost2.app[0].destAddr "\"wiredHost1\""
config *.wirelessHost3.app[0].destAddr "\"wiredHost2\""
config *.wirelessHost*.app[0].sendInterval 50ms
config **.wirelessHost*.wlan[0].mac.associatedAp.recordScalar true
config **.wirelessHost*.wlan[0].mac.handoverCount.recordScalar true
config **.wirelessHost*.wlan[0].mac.signalStrength.recordScalar true

par networkwireless.accessPoint.ethg$o[0].channel typename "\"inet.node.ethernet.Eth100M\""
par networkwireless.accessPoint.ethg$o[0].channel disabled false
attr mutable ""
par networkwireless.accessPoint.ethg$o[0].channel delay 5e-08s
attr mutable ""
attr unit s
par networkwireless.accessPoint.ethg$o[0].channel datarate 1e+08bps
attr mutable ""
attr unit bps
par networkwireless.accessPoint.ethg$o[0].channel ber 0
attr mutable ""
par networkwireless.accessPoint.ethg$o[0].channel per 0
attr mutable ""
par networkwireless.accessPoint.ethg$o[0].channel length 10m
attr unit m
par networkwireless.router.ethg$o[0].channel typename "\"inet.node.ethernet.Eth100M\""
par networkwireless.router.ethg$o[0].channel disabled false
attr mutable ""
par networkwireless.router.ethg$o[0].channel delay 5e-08s
attr mutable ""
attr unit s
par networkwireless.router.ethg$o[0].channel datarate 1e+08bps
attr mutable ""
attr unit bps
par networkwireless.router.ethg$o[0].channel ber 0
attr mutable ""
par networkwireless.router.ethg$o[0].channel per 0
attr mutable ""
par networkwireless.router.ethg$o[0].channel length 10m
attr unit m
par networkwireless.wiredHost1.ethg$o[0].channel typename "\"inet.node.ethernet.Eth100M\""
par networkwireless.wiredHost1.ethg$o[0].channel disabled false
attr mutable ""
par networkwireless.wiredHost1.ethg$o[0].channel delay 5e-08s
attr mutable ""
attr unit s
par networkwireless.wiredHost1.ethg$o[0].channel datarate 1e+08bps
attr mutable ""
attr unit bps
par networkwireless.wiredHost1.ethg$o[0].channel ber 0
attr mutable ""
par networkwireless.wiredHost1.ethg$o[0].channel per 0
attr mutable ""
par networkwireless.wiredHost1.ethg$o[0].channel length 10m
attr unit m
par networkwireless.accessPoint.ethg$o[1].channel typename "\"inet.node.ethernet.Eth100M\""
par networkwireless.accessPoint.ethg$o[1].channel disabled false
attr mutable ""
par networkwireless.accessPoint.ethg$o[1].channel delay 5e-08s
attr mutable ""
attr unit s
par networkwireless.accessPoint.ethg$o[1].channel datarate 1e+08bps
attr mutable ""
attr unit bps
par networkwireless.accessPoint.ethg$o[1].channel ber 0
attr mutable ""
par networkwireless.accessPoint.ethg$o[1].channel per 0
attr mutable ""
par networkwireless.accessPoint.ethg$o[1].channel length 10m
attr unit m
par networkwireless.wiredHost2.ethg$o[0].channel typename "\"inet.node.ethernet.Eth100M\""
par networkwireless.wiredHost2.ethg$o[0].channel disabled false
attr mutable ""
par networkwireless.wiredHost2.ethg$o[0].channel delay 5e-08s
attr mutable ""
attr unit s
par networkwireless.wiredHost2.ethg$o[0].channel datarate 1e+08bps
attr mutable ""
attr unit bps
par networkwireless.wiredHost2.ethg$o[0].channel ber 0
attr mutable ""
par networkwireless.wiredHost2.ethg$o[0].channel per 0
attr mutable ""
par networkwireless.wiredHost2.ethg$o[0].channel length 10m
attr unit m
par networkwireless.router.ethg$o[1].channel typename "\"inet.node.ethernet.Eth100M\""
par networkwireless.router.ethg$o[1].channel disabled false
attr mutable ""
par networkwireless.router.ethg$o[1].channel delay 5e-08s
attr mutable ""
attr unit s
par networkwireless.router.ethg$o[1].channel datarate 1e+08bps
attr mutable ""
attr unit bps
par networkwireless.router.ethg$o[1].channel ber 0
attr mutable ""
par networkwireless.router.ethg$o[1].channel per 0
attr mutable ""
par networkwireless.router.ethg$o[1].channel length 10m
attr unit m
par networkwireless.accessPoint.ethg$o[2].channel typename "\"inet.node.ethernet.Eth100M\""
par networkwireless.accessPoint.ethg$o[2].channel disabled false
attr mutable ""
par networkwireless.accessPoint.ethg$o[2].channel delay 5e-08s
attr mutable ""
attr unit s
par networkwireless.accessPoint.ethg$o[2].channel datarate 1e+08bps
attr mutable ""
attr unit bps
par networkwireless.accessPoint.ethg$o[2].channel ber 0
attr mutable ""
par networkwireless.accessPoint.ethg$o[2].channel per 0
attr mutable ""
par networkwireless.accessPoint.ethg$o[2].channel length 10m
attr unit m
par networkwireless.accessPoint1.ethg$o[0].channel typename "\"inet.node.ethernet.Eth100M\""
par networkwireless.accessPoint1.ethg$o[0].channel disabled false
attr mutable ""
par networkwireless.accessPoint1.ethg$o[0].channel delay 5e-08s
attr mutable ""
attr unit s
par networkwireless.accessPoint1.ethg$o[0].channel datarate 1e+08bps
attr mutable ""
attr unit bps
par networkwireless.accessPoint1.ethg$o[0].channel ber 0
attr mutable ""
par networkwireless.accessPoint1.ethg$o[0].channel per 0
attr mutable ""
par networkwireless.accessPoint1.ethg$o[0].channel length 10m
attr unit m
par networkwireless.accessPoint.ethg$o[3].channel typename "\"inet.node.ethernet.Eth100M\""
par networkwireless.accessPoint.ethg$o[3].channel disabled false
attr mutable ""
par networkwireless.accessPoint.ethg$o[3].channel delay 5e-08s
attr mutable ""
attr unit s
par networkwireless.accessPoint.ethg$o[3].channel datarate 1e+08bps
attr mutable ""
attr unit bps
par networkwireless.accessPoint.ethg$o[3].channel ber 0
attr mutable ""
par networkwireless.accessPoint.ethg$o[3].channel per 0
attr mutable ""
par networkwireless.accessPoint.ethg$o[3].channel length 10m
attr unit m
par networkwireless.accessPoint2.ethg$o[0].channel typename "\"inet.node.ethernet.Eth100M\""
par networkwireless.accessPoint2.ethg$o[0].channel disabled false
attr mutable ""
par networkwireless.accessPoint2.ethg$o[0].channel delay 5e-08s
attr mutable ""
attr unit s
par networkwireless.accessPoint2.ethg$o[0].channel datarate 1e+08bps
attr mutable ""
attr unit bps
par networkwireless.accessPoint2.ethg$o[0].channel ber 0
attr mutable ""
par networkwireless.accessPoint2.ethg$o[0].channel per 0
attr mutable ""
par networkwireless.accessPoint2.ethg$o[0].channel length 10m
attr unit m
par networkwireless.visualizer.sceneVisualizer typename "\"inet.visualizer.canvas.scene.SceneCanvasVisualizer\""
par networkwireless.visualizer.sceneVisualizer visualizationTargetModule "\"^.^\""
par networkwireless.visualizer.sceneVisualizer visualizationSubjectModule "\"^.^\""
par networkwireless.visualizer.sceneVisualizer tags "\"\""
par networkwireless.visualizer.sceneVisualizer physicalEnvironmentModule "\"physicalEnvironment\""
par networkwireless.visualizer.sceneVisualizer networkNodeVisualizerModule "\"^.networkNodeVisualizer\""
par networkwireless.visualizer.sceneVisualizer axisLength "nan m"
attr mutable ""
attr unit m
par networkwireless.visualizer.sceneVisualizer animationSpeed 0
par networkwireless.visualizer.sceneVisualizer sceneMinX "nan m"
attr unit m
par networkwireless.visualizer.sceneVisualizer sceneMinY "nan m"
attr unit m
par networkwireless.visualizer.sceneVisualizer sceneMinZ "nan m"
attr unit m
par networkwireless.visualizer.sceneVisualizer sceneMaxX "nan m"
attr unit m
par networkwireless.visualizer.sceneVisualizer sceneMaxY "nan m"
attr unit m
par networkwireless.visualizer.sceneVisualizer sceneMaxZ "nan m"
attr unit m
par networkwireless.visualizer.sceneVisualizer zIndex 0
par networkwireless.visualizer.sceneVisualizer viewAngle "\"x right y down z out\""
attr mutable ""
par networkwireless.visualizer.sceneVisualizer viewScale "\"1 1\""
attr mutable ""
par networkwireless.visualizer.sceneVisualizer viewTranslation "\"0 0\""
attr mutable ""
par networkwireless.visualizer.sceneVisualizer descriptionFigure "\"\""
par networkwireless.visualizer.physicalEnvironmentVisualizer typename "\"inet.visualizer.canvas.environment.PhysicalEnvironmentCanvasVisualizer\""
par networkwireless.visualizer.physicalEnvironmentVisualizer visualizationTargetModule "\"^.^\""
par networkwireless.visualizer.physicalEnvironmentVisualizer visualizationSubjectModule "\"^.^\""
par networkwireless.visualizer.physicalEnvironmentVisualizer tags "\"\""
par networkwireless.visualizer.physicalEnvironmentVisualizer physicalEnvironmentModule "\"physicalEnvironment\""
par networkwireless.visualizer.physicalEnvironmentVisualizer displayObjects true
par networkwireless.visualizer.physicalEnvironmentVisualizer zIndex 0
par networkwireless.visualizer.networkNodeVisualizer typename "\"inet.visualizer.canvas.scene.NetworkNodeCanvasVisualizer\""
par networkwireless.visualizer.networkNodeVisualizer visualizationTargetModule "\"^.^\""
par networkwireless.visualizer.networkNodeVisualizer visualizationSubjectModule "\"^.^\""
par networkwireless.visualizer.networkNodeVisualizer tags "\"\""
par networkwireless.visualizer.networkNodeVisualizer nodeFilter "\"*\""
attr mutable ""
par networkwireless.visualizer.networkNodeVisualizer annotationSpacing 4
par networkwireless.visualizer.networkNodeVisualizer placementPenalty 10
par networkwireless.visualizer.networkNodeVisualizer zIndex 0
par networkwireless.visualizer.networkConnectionVisualizer typename "\"inet.visualizer.canvas.scene.NetworkConnectionCanvasVisualizer\""
par networkwireless.visualizer.networkConnectionVisualizer visualizationTargetModule "\"^.^\""
par networkwireless.visualizer.networkConnectionVisualizer visualizationSubjectModule "\"^.^\""
par networkwireless.visualizer.networkConnectionVisualizer tags "\"\""
par networkwireless.visualizer.networkConnectionVisualizer displayNetworkConnections true
par networkwireless.visualizer.networkConnectionVisualizer nodeFilter "\"\""
attr mutable ""
par networkwireless.visualizer.networkConnectionVisualizer lineColor "\"black\""
par networkwireless.visualizer.networkConnectionVisualizer lineStyle "\"solid\""
par networkwireless.visualizer.networkConnectionVisualizer lineWidth 1
par networkwireless.visualizer.networkConnectionVisualizer zIndex 0
par networkwireless.visualizer.mobilityVisualizer typename "\"inet.visualizer.canvas.mobility.MobilityCanvasVisualizer\""
par networkwireless.visualizer.mobilityVisualizer visualizationTargetModule "\"^.^\""
par networkwireless.visualizer.mobilityVisualizer visualizationSubjectModule "\"^.^\""
par networkwireless.visualizer.mobilityVisualizer tags "\"\""
par networkwireless.visualizer.mobilityVisualizer networkNodeVisualizerModule "\"^.networkNodeVisualizer\""
par networkwireless.visualizer.mobilityVisualizer displayMobility true
par networkwireless.visualizer.mobilityVisualizer animationSpeed 0
par networkwireless.visualizer.mobilityVisualizer moduleFilter "\"**.mobility\""
attr mutable ""
par networkwireless.visualizer.mobilityVisualizer displayPositions false
par networkwireless.visualizer.mobilityVisualizer positionCircleRadius 4
par networkwireless.visualizer.mobilityVisualizer positionCircleLineWidth 1
par networkwireless.visualizer.mobilityVisualizer positionCircleLineColor "\"dark\""
par networkwireless.visualizer.mobilityVisualizer positionCircleFillColor "\"dark\""
par networkwireless.visualizer.mobilityVisualizer displayOrientations false
par networkwireless.visualizer.mobilityVisualizer orientationPieRadius 32
par networkwireless.visualizer.mobilityVisualizer orientationPieSize 0.2
par networkwireless.visualizer.mobilityVisualizer orientationPieOpacity 0.25
par networkwireless.visualizer.mobilityVisualizer orientationLineColor "\"black\""
par networkwireless.visualizer.mobilityVisualizer orientationLineStyle "\"solid\""
par networkwireless.visualizer.mobilityVisualizer orientationLineWidth 1
par networkwireless.visualizer.mobilityVisualizer orientationFillColor "\"blue\""
par networkwireless.visualizer.mobilityVisualizer displayVelocities false
par networkwireless.visualizer.mobilityVisualizer velocityArrowScale 1
par networkwireless.visualizer.mobilityVisualizer velocityLineColor "\"black\""
par networkwireless.visualizer.mobilityVisualizer velocityLineStyle "\"solid\""
par networkwireless.visualizer.mobilityVisualizer velocityLineWidth 1
par networkwireless.visualizer.mobilityVisualizer displayMovementTrails false
par networkwireless.visualizer.mobilityVisualizer movementTrailLineColor "\"dark\""
par networkwireless.visualizer.mobilityVisualizer movementTrailLineStyle "\"solid\""
par networkwireless.visualizer.mobilityVisualizer movementTrailLineWidth 1
par networkwireless.visualizer.mobilityVisualizer trailLength 100
par networkwireless.visualizer.mobilityVisualizer zIndex 0
par networkwireless.visualizer.statisticVisualizer typename "\"inet.visualizer.canvas.common.StatisticCanvasVisualizer\""
par networkwireless.visualizer.statisticVisualizer visualizationTargetModule "\"^.^\""
par networkwireless.visualizer.statisticVisualizer visualizationSubjectModule "\"^.^\""
par networkwireless.visualizer.statisticVisualizer tags "\"\""
par networkwireless.visualizer.statisticVisualizer networkNodeVisualizerModule "\"^.networkNodeVisualizer\""
par networkwireless.visualizer.statisticVisualizer displayStatistics true
par networkwireless.visualizer.statisticVisualizer signalName "\"\""
par networkwireless.visualizer.statisticVisualizer statisticName "\"\""
par networkwireless.visualizer.statisticVisualizer statisticUnit "\"\""
par networkwireless.visualizer.statisticVisualizer statisticExpression "\"\""
par networkwireless.visualizer.statisticVisualizer sourceFilter "\"**\""
attr mutable ""
par networkwireless.visualizer.statisticVisualizer format "\"%n: %v %u\""
attr mutable ""
par networkwireless.visualizer.statisticVisualizer unit "\"\""
par networkwireless.visualizer.statisticVisualizer font "\"<default>\""
par networkwireless.visualizer.statisticVisualizer textColor "\"black\""
par networkwireless.visualizer.statisticVisualizer backgroundColor "\"white\""
par networkwireless.visualizer.statisticVisualizer opacity 1
par networkwireless.visualizer.statisticVisualizer placementHint "\"top\""
par networkwireless.visualizer.statisticVisualizer placementPriority 0
par networkwireless.visualizer.statisticVisualizer zIndex 10
par networkwireless.visualizer.statisticVisualizer propertyName "\"\""
par networkwireless.visualizer.statisticVisualizer propertyIndex "\"\""
par networkwireless.visualizer.infoVisualizer typename "\"inet.visualizer.canvas.common.InfoCanvasVisualizer\""
par networkwireless.visualizer.infoVisualizer visualizationTargetModule "\"^.^\""
par networkwireless.visualizer.infoVisualizer visualizationSubjectModule "\"^.^\""
par networkwireless.visualizer.infoVisualizer tags "\"\""
par networkwireless.visualizer.infoVisualizer networkNodeVisualizerModule "\"^.networkNodeVisualizer\""
par networkwireless.visualizer.infoVisualizer displayInfos true
par networkwireless.visualizer.infoVisualizer modules "\"\""
attr mutable ""
par networkwireless.visualizer.infoVisualizer format "\"%t\""
attr mutable ""
par networkwireless.visualizer.infoVisualizer font "\"<default>\""
par networkwireless.visualizer.infoVisualizer textColor "\"black\""
par networkwireless.visualizer.infoVisualizer backgroundColor "\"white\""
par networkwireless.visualizer.infoVisualizer opacity 1
par networkwireless.visualizer.infoVisualizer placementHint "\"top\""
par networkwireless.visualizer.infoVisualizer placementPriority 0
par networkwireless.visualizer.infoVisualizer zIndex 10
par networkwireless.visualizer.energyStorageVisualizer typename "\"inet.visualizer.canvas.power.EnergyStorageCanvasVisualizer\""
par networkwireless.visualizer.energyStorageVisualizer visualizationTargetModule "\"^.^\""
par networkwireless.visualizer.energyStorageVisualizer visualizationSubjectModule "\"^.^\""
par networkwireless.visualizer.energyStorageVisualizer tags "\"\""
par networkwireless.visualizer.energyStorageVisualizer networkNodeVisualizerModule "\"^.networkNodeVisualizer\""
par networkwireless.visualizer.energyStorageVisualizer displayEnergyStorages false
par networkwireless.visualizer.energyStorageVisualizer energyStorageFilter "\"**\""
par networkwireless.visualizer.energyStorageVisualizer color "\"green\""
par networkwireless.visualizer.energyStorageVisualizer width 8
par networkwireless.visualizer.energyStorageVisualizer height 24
par networkwireless.visualizer.energyStorageVisualizer spacing 2
par networkwireless.visualizer.energyStorageVisualizer placementHint "\"right\""
par networkwireless.visualizer.energyStorageVisualizer placementPriority 0
par networkwireless.visualizer.energyStorageVisualizer zIndex 10
par networkwireless.visualizer.mediumVisualizer typename "\"inet.visualizer.canvas.physicallayer.MediumCanvasVisualizer\""
par networkwireless.visualizer.mediumVisualizer visualizationTargetModule "\"^.^\""
par networkwireless.visualizer.mediumVisualizer visualizationSubjectModule "\"^.^\""
par networkwireless.visualizer.mediumVisualizer tags "\"\""
par networkwireless.visualizer.mediumVisualizer mediumModule "\"radioMedium\""
par networkwireless.visualizer.mediumVisualizer networkNodeVisualizerModule "\"^.networkNodeVisualizer\""
par networkwireless.visualizer.mediumVisualizer nodeFilter "\"*\""
attr mutable ""
par networkwireless.visualizer.mediumVisualizer interfaceFilter "\"*\""
attr mutable ""
par networkwireless.visualizer.mediumVisualizer packetFilter "(omnetpp::cValueHolder)holder: \"*\""
attr mutable ""
par networkwireless.visualizer.mediumVisualizer displaySignals false
par networkwireless.visualizer.mediumVisualizer signalColor "\"dark\""
par networkwireless.visualizer.mediumVisualizer signalPropagationAnimationSpeed "nan "
attr mutable ""
par networkwireless.visualizer.mediumVisualizer signalPropagationAnimationTime 1s
attr unit s
par networkwireless.visualizer.mediumVisualizer signalPropagationAdditionalTime 0s
attr unit s
par networkwireless.visualizer.mediumVisualizer signalTransmissionAnimationSpeed "nan "
attr mutable ""
par networkwireless.visualizer.mediumVisualizer signalTransmissionAnimationTime 1s
attr unit s
par networkwireless.visualizer.mediumVisualizer signalAnimationSpeedChangeTimeMode "\"realTime\""
attr enum realTime,animationTime,simulationTime
par networkwireless.visualizer.mediumVisualizer signalAnimationSpeedChangeTime 1s
attr unit s
par networkwireless.visualizer.mediumVisualizer displaySignalDepartures false
par networkwireless.visualizer.mediumVisualizer signalDepartureImage "\"misc/signal_departure.png\""
par networkwireless.visualizer.mediumVisualizer signalDeparturePlacementHint "\"topCenter\""
par networkwireless.visualizer.mediumVisualizer signalDeparturePlacementPriority 1
par networkwireless.visualizer.mediumVisualizer displaySignalArrivals false
par networkwireless.visualizer.mediumVisualizer signalArrivalImage "\"misc/signal_arrival.png\""
par networkwireless.visualizer.mediumVisualizer signalArrivalPlacementHint "\"topCenter\""
par networkwireless.visualizer.mediumVisualizer signalArrivalPlacementPriority -1
par networkwireless.visualizer.mediumVisualizer displayCommunicationRanges false
par networkwireless.visualizer.mediumVisualizer communicationRangeLineColor "\"blue\""
par networkwireless.visualizer.mediumVisualizer communicationRangeLineStyle "\"solid\""
par networkwireless.visualizer.mediumVisualizer communicationRangeLineWidth 1
par networkwireless.visualizer.mediumVisualizer displayInterferenceRanges false
par networkwireless.visualizer.mediumVisualizer interferenceRangeLineColor "\"gray\""
par networkwireless.visualizer.mediumVisualizer interferenceRangeLineStyle "\"solid\""
par networkwireless.visualizer.mediumVisualizer interferenceRangeLineWidth 1
par networkwireless.visualizer.mediumVisualizer autoPowerAxis true
par networkwireless.visualizer.mediumVisualizer signalMinPower "inf dBmW"
attr unit dBmW
par networkwireless.visualizer.mediumVisualizer signalMaxPower 0dBmW
attr unit dBmW
par networkwireless.visualizer.mediumVisualizer signalMinPowerDensity "inf dBmWpMHz"
attr unit dBmWpMHz
par networkwireless.visualizer.mediumVisualizer signalMaxPowerDensity "-inf dBmWpMHz"
attr unit dBmWpMHz
par networkwireless.visualizer.mediumVisualizer autoTimeAxis true
par networkwireless.visualizer.mediumVisualizer signalMinTime 0s
attr unit s
par networkwireless.visualizer.mediumVisualizer signalMaxTime 0s
attr unit s
par networkwireless.visualizer.mediumVisualizer autoFrequencyAxis true
par networkwireless.visualizer.mediumVisualizer signalMinFrequency "inf Hz"
attr unit Hz
par networkwireless.visualizer.mediumVisualizer signalMaxFrequency "-inf Hz"
attr unit Hz
par networkwireless.visualizer.mediumVisualizer displayMainPowerDensityMap false
par networkwireless.visualizer.mediumVisualizer mainPowerDensityMapPixmapDensity 1
par networkwireless.visualizer.mediumVisualizer mainPowerDensityMapMinX 0
par networkwireless.visualizer.mediumVisualizer mainPowerDensityMapMaxX "nan "
par networkwireless.visualizer.mediumVisualizer mainPowerDensityMapMinY 0
par networkwireless.visualizer.mediumVisualizer mainPowerDensityMapMaxY "nan "
par networkwireless.visualizer.mediumVisualizer mainPowerDensityMapZ 0
par networkwireless.visualizer.mediumVisualizer mainPowerDensityMapFigureXTickCount 3
par networkwireless.visualizer.mediumVisualizer mainPowerDensityMapFigureYTickCount 3
par networkwireless.visualizer.mediumVisualizer displayPowerDensityMaps false
par networkwireless.visualizer.mediumVisualizer powerDensityMapMode "\"auto\""
attr enum total,signal,auto
par networkwireless.visualizer.mediumVisualizer powerDensityMapPixelMode "\"mean\""
attr enum sample,partition,mean
par networkwireless.visualizer.mediumVisualizer powerDensityMapApproximationSize 10
par networkwireless.visualizer.mediumVisualizer powerDensityMapCenterFrequency "nan Hz"
attr mutable ""
attr unit Hz
par networkwireless.visualizer.mediumVisualizer powerDensityMapBandwidth 0Hz
attr mutable ""
attr unit Hz
par networkwireless.visualizer.mediumVisualizer powerDensityMapFigureWidth 200
par networkwireless.visualizer.mediumVisualizer powerDensityMapFigureHeight 120
par networkwireless.visualizer.mediumVisualizer powerDensityMapPixmapWidth 200
par networkwireless.visualizer.mediumVisualizer powerDensityMapPixmapHeight 120
par networkwireless.visualizer.mediumVisualizer powerDensityMapZ 0
par networkwireless.visualizer.mediumVisualizer powerDensityMapFigureXTickCount 3
par networkwireless.visualizer.mediumVisualizer powerDensityMapFigureYTickCount 3
par networkwireless.visualizer.mediumVisualizer displaySpectrums false
par networkwireless.visualizer.mediumVisualizer spectrumMode "\"auto\""
attr enum total,signal,auto
par networkwireless.visualizer.mediumVisualizer spectrumFigureWidth 200
par networkwireless.visualizer.mediumVisualizer spectrumFigureHeight 120
par networkwireless.visualizer.mediumVisualizer spectrumFigureXTickCount 3
par networkwireless.visualizer.mediumVisualizer spectrumFigureYTickCount 5
par networkwireless.visualizer.mediumVisualizer spectrumFigureInterpolationSize 5
par networkwireless.visualizer.mediumVisualizer spectrumPlacementHint "\"bottomCenter\""
par networkwireless.visualizer.mediumVisualizer spectrumPlacementPriority -1
par networkwireless.visualizer.mediumVisualizer displaySpectrograms false
par networkwireless.visualizer.mediumVisualizer spectrogramMode "\"auto\""
attr enum total,signal,auto
par networkwireless.visualizer.mediumVisualizer spectrogramPixelMode "\"mean\""
attr enum sample,partition,mean
par networkwireless.visualizer.mediumVisualizer spectrogramFigureWidth 200
par networkwireless.visualizer.mediumVisualizer spectrogramFigureHeight 120
par networkwireless.visualizer.mediumVisualizer spectrogramPixmapWidth 200
par networkwireless.visualizer.mediumVisualizer spectrogramPixmapHeight 120
par networkwireless.visualizer.mediumVisualizer spectrogramFigureXTickCount 3
par networkwireless.visualizer.mediumVisualizer spectrogramFigureYTickCount 5
par networkwireless.visualizer.mediumVisualizer spectrogramPlacementHint "\"bottomCenter\""
par networkwireless.visualizer.mediumVisualizer spectrogramPlacementPriority -1
par networkwireless.visualizer.mediumVisualizer zIndex 0
par networkwireless.visualizer.mediumVisualizer signalShape "\"ring\""
attr enum ring,sphere
par networkwireless.visualizer.mediumVisualizer signalOpacity 0.5
par networkwireless.visualizer.mediumVisualizer signalRingCount 20
par networkwireless.visualizer.mediumVisualizer signalRingSize 50m
attr unit m
par networkwireless.visualizer.mediumVisualizer signalFadingDistance 50m
attr unit m
par networkwireless.visualizer.mediumVisualizer signalFadingFactor 1.2
par networkwireless.visualizer.mediumVisualizer signalWaveCount 20
par networkwireless.visualizer.mediumVisualizer signalWaveLength 50m
attr unit m
par networkwireless.visualizer.mediumVisualizer signalWaveWidth 10m
attr unit m
par networkwireless.visualizer.mediumVisualizer signalWaveFadingAnimationSpeedFactor 1
par networkwireless.visualizer.mediumVisualizer displayCommunicationHeat false
par networkwireless.visualizer.obstacleLossVisualizer typename "\"inet.visualizer.canvas.physicallayer.TracingObstacleLossCanvasVisualizer\""
par networkwireless.visualizer.obstacleLossVisualizer visualizationTargetModule "\"^.^\""
par networkwireless.visualizer.obstacleLossVisualizer visualizationSubjectModule "\"^.^\""
par networkwireless.visualizer.obstacleLossVisualizer tags "\"\""
par networkwireless.visualizer.obstacleLossVisualizer displayIntersections false
par networkwireless.visualizer.obstacleLossVisualizer intersectionLineColor "\"red\""
par networkwireless.visualizer.obstacleLossVisualizer intersectionLineStyle "\"solid\""
par networkwireless.visualizer.obstacleLossVisualizer intersectionLineWidth 1
par networkwireless.visualizer.obstacleLossVisualizer displayFaceNormalVectors false
par networkwireless.visualizer.obstacleLossVisualizer faceNormalLineColor "\"grey\""
par networkwireless.visualizer.obstacleLossVisualizer faceNormalLineStyle "\"solid\""
par networkwireless.visualizer.obstacleLossVisualizer faceNormalLineWidth 1
par networkwireless.visualizer.obstacleLossVisualizer fadeOutMode "\"realTime\""
attr enum realTime,animationTime,simulationTime
par networkwireless.visualizer.obstacleLossVisualizer fadeOutTime 1s
attr unit s
par networkwireless.visualizer.obstacleLossVisualizer fadeOutAnimationSpeed 0
par networkwireless.visualizer.obstacleLossVisualizer zIndex 0
par networkwireless.visualizer.packetDropVisualizer typename "\"inet.visualizer.canvas.common.PacketDropCanvasVisualizer\""
par networkwireless.visualizer.packetDropVisualizer visualizationTargetModule "\"^.^\""
par networkwireless.visualizer.packetDropVisualizer visualizationSubjectModule "\"^.^\""
par networkwireless.visualizer.packetDropVisualizer tags "\"\""
par networkwireless.visualizer.packetDropVisualizer displayPacketDrops false
par networkwireless.visualizer.packetDropVisualizer nodeFilter "\"*\""
attr mutable ""
par networkwireless.visualizer.packetDropVisualizer interfaceFilter "\"*\""
attr mutable ""
par networkwireless.visualizer.packetDropVisualizer packetFilter "(omnetpp::cValueHolder)holder: \"*\""
attr mutable ""
par networkwireless.visualizer.packetDropVisualizer detailsFilter "\"*\""
attr mutable ""
par networkwireless.visualizer.packetDropVisualizer icon "\"msg/packet_s\""
par networkwireless.visualizer.packetDropVisualizer iconTintAmount 1
par networkwireless.visualizer.packetDropVisualizer iconTintColor "\"dark\""
par networkwireless.visualizer.packetDropVisualizer labelFormat "\"%n\""
attr mutable ""
par networkwireless.visualizer.packetDropVisualizer labelFont "\"<default>\""
par networkwireless.visualizer.packetDropVisualizer labelColor "\"black\""
par networkwireless.visualizer.packetDropVisualizer fadeOutMode "\"realTime\""
attr enum realTime,animationTime,simulationTime
par networkwireless.visualizer.packetDropVisualizer fadeOutTime 1s
attr unit s
par networkwireless.visualizer.packetDropVisualizer fadeOutAnimationSpeed 0
par networkwireless.visualizer.packetDropVisualizer zIndex 10
par networkwireless.visualizer.packetDropVisualizer dx 32
par networkwireless.visualizer.packetDropVisualizer dy 64
par networkwireless.visualizer.packetFlowVisualizer typename "\"inet.visualizer.canvas.flow.PacketFlowCanvasVisualizer\""
par networkwireless.visualizer.packetFlowVisualizer visualizationTargetModule "\"^.^\""
par networkwireless.visualizer.packetFlowVisualizer visualizationSubjectModule "\"^.^\""
par networkwireless.visualizer.packetFlowVisualizer tags "\"\""
par networkwireless.visualizer.packetFlowVisualizer displayRoutes false
par networkwireless.visualizer.packetFlowVisualizer startPathSignal "\"packetFlowStarted\""
par networkwireless.visualizer.packetFlowVisualizer extendPathSignal "\"packetReceivedFromLower\""
par networkwireless.visualizer.packetFlowVisualizer endPathSignal "\"packetFlowEnded\""
par networkwireless.visualizer.packetFlowVisualizer nodeFilter "\"*\""
attr mutable ""
par networkwireless.visualizer.packetFlowVisualizer packetFilter "(omnetpp::cValueHolder)holder: \"*\""
attr mutable ""
par networkwireless.visualizer.packetFlowVisualizer lineColor "\"dark\""
par networkwireless.visualizer.packetFlowVisualizer lineStyle "\"dashed\""
par networkwireless.visualizer.packetFlowVisualizer lineWidth 3
par networkwireless.visualizer.packetFlowVisualizer lineSmooth false
par networkwireless.visualizer.packetFlowVisualizer lineShift 16
par networkwireless.visualizer.packetFlowVisualizer lineShiftMode "\"normal\""
par networkwireless.visualizer.packetFlowVisualizer lineContactSpacing 3
par networkwireless.visualizer.packetFlowVisualizer lineContactMode "\"rectangular\""
attr enum circular,rectangular
par networkwireless.visualizer.packetFlowVisualizer labelFormat "\"%L %p pk (%l)\""
par networkwireless.visualizer.packetFlowVisualizer labelFont "\"<default>, 8px\""
par networkwireless.visualizer.packetFlowVisualizer labelColor "\"\""
par networkwireless.visualizer.packetFlowVisualizer fadeOutMode "\"realTime\""
attr enum realTime,animationTime,simulationTime
par networkwireless.visualizer.packetFlowVisualizer fadeOutTime 0s
attr unit s
par networkwireless.visualizer.packetFlowVisualizer fadeOutAnimationSpeed 0
par networkwireless.visualizer.packetFlowVisualizer zIndex 4
par networkwireless.visualizer.queueVisualizer typename "\"inet.visualizer.canvas.common.QueueCanvasVisualizer\""
par networkwireless.visualizer.queueVisualizer visualizationTargetModule "\"^.^\""
par networkwireless.visualizer.queueVisualizer visualizationSubjectModule "\"^.^\""
par networkwireless.visualizer.queueVisualizer tags "\"\""
par networkwireless.visualizer.queueVisualizer networkNodeVisualizerModule "\"^.networkNodeVisualizer\""
par networkwireless.visualizer.queueVisualizer displayQueues false
par networkwireless.visualizer.queueVisualizer queueFilter "\"**\""
par networkwireless.visualizer.queueVisualizer color "\"blue\""
par networkwireless.visualizer.queueVisualizer width 8
par networkwireless.visualizer.queueVisualizer height 24
par networkwireless.visualizer.queueVisualizer spacing 2
par networkwireless.visualizer.queueVisualizer placementHint "\"right\""
par networkwireless.visualizer.queueVisualizer placementPriority 0
par networkwireless.visualizer.queueVisualizer zIndex 10
par networkwireless.visualizer.gateScheduleVisualizer typename "\"inet.visualizer.canvas.common.GateScheduleCanvasVisualizer\""
par networkwireless.visualizer.gateScheduleVisualizer visualizationTargetModule "\"^.^\""
par networkwireless.visualizer.gateScheduleVisualizer visualizationSubjectModule "\"^.^\""
par networkwireless.visualizer.gateScheduleVisualizer tags "\"\""
par networkwireless.visualizer.gateScheduleVisualizer networkNodeVisualizerModule "\"^.networkNodeVisualizer\""
par networkwireless.visualizer.gateScheduleVisualizer displayGateSchedules false
par networkwireless.visualizer.gateScheduleVisualizer labelFormat "\"%i %D\""
par networkwireless.visualizer.gateScheduleVisualizer gateFilter "\"**\""
par networkwireless.visualizer.gateScheduleVisualizer width 100
par networkwireless.visualizer.gateScheduleVisualizer height 8
par networkwireless.visualizer.gateScheduleVisualizer spacing 2
par networkwireless.visualizer.gateScheduleVisualizer placementHint "\"right\""
par networkwireless.visualizer.gateScheduleVisualizer placementPriority 0
par networkwireless.visualizer.gateScheduleVisualizer displayDuration 0s
attr mutable ""
attr unit s
par networkwireless.visualizer.gateScheduleVisualizer currentTimePosition 50
par networkwireless.visualizer.gateScheduleVisualizer zIndex 10
par networkwireless.visualizer.radioVisualizer typename "\"inet.visualizer.canvas.physicallayer.RadioCanvasVisualizer\""
par networkwireless.visualizer.radioVisualizer visualizationTargetModule "\"^.^\""
par networkwireless.visualizer.radioVisualizer visualizationSubjectModule "\"^.^\""
par networkwireless.visualizer.radioVisualizer tags "\"\""
par networkwireless.visualizer.radioVisualizer networkNodeVisualizerModule "\"^.networkNodeVisualizer\""
par networkwireless.visualizer.radioVisualizer displayRadios false
par networkwireless.visualizer.radioVisualizer displayRadioMode true
par networkwireless.visualizer.radioVisualizer displayReceptionState true
par networkwireless.visualizer.radioVisualizer displayTransmissionState true
par networkwireless.visualizer.radioVisualizer displayAntennaLobes false
par networkwireless.visualizer.radioVisualizer radioFilter "\"**\""
attr mutable ""
par networkwireless.visualizer.radioVisualizer radioModeImages "\"block/process_vs block/timer_vs block/wrx_vs block/wtx_vs block/wrxtx_vs block/cogwheel_vs\""
par networkwireless.visualizer.radioVisualizer receptionStateImages "\"- - misc/receiving misc/receiving\""
par networkwireless.visualizer.radioVisualizer transmissionStateImages "\"- - misc/transmitting\""
par networkwireless.visualizer.radioVisualizer width 16
par networkwireless.visualizer.radioVisualizer height 16
par networkwireless.visualizer.radioVisualizer placementHint "\"bottomRight\""
par networkwireless.visualizer.radioVisualizer placementPriority 0
par networkwireless.visualizer.radioVisualizer antennaLobeNormalize false
par networkwireless.visualizer.radioVisualizer antennaLobeRelativeLabels false
par networkwireless.visualizer.radioVisualizer antennaLobePlaneGlobal true
par networkwireless.visualizer.radioVisualizer antennaLobePlane "\"view\""
attr enum view,xy,xz,yz
par networkwireless.visualizer.radioVisualizer antennaLobeMode "\"logarithmic\""
attr enum logarithmic,linear
par networkwireless.visualizer.radioVisualizer antennaLobeLogarithmicBase 10
par networkwireless.visualizer.radioVisualizer antennaLobeLogarithmicScale 100
par networkwireless.visualizer.radioVisualizer antennaLobeRadius 100
par networkwireless.visualizer.radioVisualizer antennaLobeStep 10deg
attr unit deg
par networkwireless.visualizer.radioVisualizer antennaLobeOpacity 0.25
par networkwireless.visualizer.radioVisualizer antennaLobeLineSmooth true
par networkwireless.visualizer.radioVisualizer antennaLobeLineColor "\"black\""
par networkwireless.visualizer.radioVisualizer antennaLobeLineStyle "\"solid\""
par networkwireless.visualizer.radioVisualizer antennaLobeLineWidth 1
par networkwireless.visualizer.radioVisualizer antennaLobeFillColor "\"white\""
par networkwireless.visualizer.radioVisualizer zIndex 10
par networkwireless.visualizer.physicalLinkVisualizer typename "\"inet.visualizer.canvas.physicallayer.PhysicalLinkCanvasVisualizer\""
par networkwireless.visualizer.physicalLinkVisualizer visualizationTargetModule "\"^.^\""
par networkwireless.visualizer.physicalLinkVisualizer visualizationSubjectModule "\"^.^\""
par networkwireless.visualizer.physicalLinkVisualizer tags "\"\""
par networkwireless.visualizer.physicalLinkVisualizer displayLinks false
par networkwireless.visualizer.physicalLinkVisualizer activityLevel "\"service\""
attr enum service,peer,protocol
par networkwireless.visualizer.physicalLinkVisualizer nodeFilter "\"*\""
attr mutable ""
par networkwireless.visualizer.physicalLinkVisualizer interfaceFilter "\"*\""
attr mutable ""
par networkwireless.visualizer.physicalLinkVisualizer packetFilter "(omnetpp::cValueHolder)holder: \"*\""
attr mutable ""
par networkwireless.visualizer.physicalLinkVisualizer lineColor "\"olive\""
par networkwireless.visualizer.physicalLinkVisualizer lineStyle "\"dotted\""
par networkwireless.visualizer.physicalLinkVisualizer lineWidth 3
par networkwireless.visualizer.physicalLinkVisualizer lineShift 16
par networkwireless.visualizer.physicalLinkVisualizer lineShiftMode "\"normal\""
par networkwireless.visualizer.physicalLinkVisualizer lineContactSpacing 3
par networkwireless.visualizer.physicalLinkVisualizer lineContactMode "\"rectangular\""
attr enum circular,rectangular
par networkwireless.visualizer.physicalLinkVisualizer labelFormat "\"%n\""
par networkwireless.visualizer.physicalLinkVisualizer labelFont "\"<default>, 8px\""
par networkwireless.visualizer.physicalLinkVisualizer labelColor "\"olive\""
par networkwireless.visualizer.physicalLinkVisualizer fadeOutMode "\"realTime\""
attr enum realTime,animationTime,simulationTime
par networkwireless.visualizer.physicalLinkVisualizer fadeOutTime 1s
attr unit s
par networkwireless.visualizer.physicalLinkVisualizer fadeOutAnimationSpeed 0
par networkwireless.visualizer.physicalLinkVisualizer holdAnimationTime 0s
attr unit s
par networkwireless.visualizer.physicalLinkVisualizer zIndex 1
par networkwireless.visualizer.interfaceTableVisualizer typename "\"inet.visualizer.canvas.linklayer.InterfaceTableCanvasVisualizer\""
par networkwireless.visualizer.interfaceTableVisualizer visualizationTargetModule "\"^.^\""
par networkwireless.visualizer.interfaceTableVisualizer visualizationSubjectModule "\"^.^\""
par networkwireless.visualizer.interfaceTableVisualizer tags "\"\""
par networkwireless.visualizer.interfaceTableVisualizer networkNodeVisualizerModule "\"^.networkNodeVisualizer\""
par networkwireless.visualizer.interfaceTableVisualizer displayInterfaceTables false
par networkwireless.visualizer.interfaceTableVisualizer displayWiredInterfacesAtConnections true
par networkwireless.visualizer.interfaceTableVisualizer displayBackground false
par networkwireless.visualizer.interfaceTableVisualizer nodeFilter "\"*\""
attr mutable ""
par networkwireless.visualizer.interfaceTableVisualizer interfaceFilter "\"not(lo*)\""
attr mutable ""
par networkwireless.visualizer.interfaceTableVisualizer format "\"%N %\\\\%a%/%l\""
attr mutable ""
par networkwireless.visualizer.interfaceTableVisualizer placementHint "\"top\""
par networkwireless.visualizer.interfaceTableVisualizer placementPriority 0
par networkwireless.visualizer.interfaceTableVisualizer font "\"<default>\""
par networkwireless.visualizer.interfaceTableVisualizer textColor "\"#005030\""
par networkwireless.visualizer.interfaceTableVisualizer backgroundColor "\"white\""
par networkwireless.visualizer.interfaceTableVisualizer opacity 1
par networkwireless.visualizer.interfaceTableVisualizer zIndex 10
par networkwireless.visualizer.dataLinkVisualizer typename "\"inet.visualizer.canvas.linklayer.DataLinkCanvasVisualizer\""
par networkwireless.visualizer.dataLinkVisualizer visualizationTargetModule "\"^.^\""
par networkwireless.visualizer.dataLinkVisualizer visualizationSubjectModule "\"^.^\""
par networkwireless.visualizer.dataLinkVisualizer tags "\"\""
par networkwireless.visualizer.dataLinkVisualizer displayLinks false
par networkwireless.visualizer.dataLinkVisualizer activityLevel "\"service\""
attr enum service,peer,protocol
par networkwireless.visualizer.dataLinkVisualizer nodeFilter "\"*\""
attr mutable ""
par networkwireless.visualizer.dataLinkVisualizer interfaceFilter "\"*\""
attr mutable ""
par networkwireless.visualizer.dataLinkVisualizer packetFilter "(omnetpp::cValueHolder)holder: \"*\""
attr mutable ""
par networkwireless.visualizer.dataLinkVisualizer lineColor "\"darkcyan\""
par networkwireless.visualizer.dataLinkVisualizer lineStyle "\"solid\""
par networkwireless.visualizer.dataLinkVisualizer lineWidth 3
par networkwireless.visualizer.dataLinkVisualizer lineShift 16
par networkwireless.visualizer.dataLinkVisualizer lineShiftMode "\"normal\""
par networkwireless.visualizer.dataLinkVisualizer lineContactSpacing 3
par networkwireless.visualizer.dataLinkVisualizer lineContactMode "\"rectangular\""
attr enum circular,rectangular
par networkwireless.visualizer.dataLinkVisualizer labelFormat "\"%n\""
par networkwireless.visualizer.dataLinkVisualizer labelFont "\"<default>, 8px\""
par networkwireless.visualizer.dataLinkVisualizer labelColor "\"darkcyan\""
par networkwireless.visualizer.dataLinkVisualizer fadeOutMode "\"realTime\""
attr enum realTime,animationTime,simulationTime
par networkwireless.visualizer.dataLinkVisualizer fadeOutTime 1s
attr unit s
par networkwireless.visualizer.dataLinkVisualizer fadeOutAnimationSpeed 0
par networkwireless.visualizer.dataLinkVisualizer holdAnimationTime 0s
attr unit s
par networkwireless.visualizer.dataLinkVisualizer zIndex 2
par networkwireless.visualizer.linkBreakVisualizer typename "\"inet.visualizer.canvas.linklayer.LinkBreakCanvasVisualizer\""
par networkwireless.visualizer.linkBreakVisualizer visualizationTargetModule "\"^.^\""
par networkwireless.visualizer.linkBreakVisualizer visualizationSubjectModule "\"^.^\""
par networkwireless.visualizer.linkBreakVisualizer tags "\"\""
par networkwireless.visualizer.linkBreakVisualizer displayLinkBreaks false
par networkwireless.visualizer.linkBreakVisualizer nodeFilter "\"*\""
attr mutable ""
par networkwireless.visualizer.linkBreakVisualizer interfaceFilter "\"*\""
attr mutable ""
par networkwireless.visualizer.linkBreakVisualizer packetFilter "(omnetpp::cValueHolder)holder: \"*\""
attr mutable ""
par networkwireless.visualizer.linkBreakVisualizer icon "\"status/stop\""
par networkwireless.visualizer.linkBreakVisualizer iconTintAmount 0
par networkwireless.visualizer.linkBreakVisualizer iconTintColor "\"\""
par networkwireless.visualizer.linkBreakVisualizer fadeOutMode "\"realTime\""
attr enum realTime,animationTime,simulationTime
par networkwireless.visualizer.linkBreakVisualizer fadeOutTime 1s
attr unit s
par networkwireless.visualizer.linkBreakVisualizer fadeOutAnimationSpeed 0
par networkwireless.visualizer.linkBreakVisualizer zIndex 2
par networkwireless.visualizer.ieee80211Visualizer typename "\"inet.visualizer.canvas.linklayer.Ieee80211CanvasVisualizer\""
par networkwireless.visualizer.ieee80211Visualizer visualizationTargetModule "\"^.^\""
par networkwireless.visualizer.ieee80211Visualizer visualizationSubjectModule "\"^.^\""
par networkwireless.visualizer.ieee80211Visualizer tags "\"\""
par networkwireless.visualizer.ieee80211Visualizer networkNodeVisualizerModule "\"^.networkNodeVisualizer\""
par networkwireless.visualizer.ieee80211Visualizer displayAssociations false
par networkwireless.visualizer.ieee80211Visualizer nodeFilter "\"*\""
attr mutable ""
par networkwireless.visualizer.ieee80211Visualizer interfaceFilter "\"*\""
attr mutable ""
par networkwireless.visualizer.ieee80211Visualizer minPower -85dBm
attr unit dBm
par networkwireless.visualizer.ieee80211Visualizer maxPower -50dBm
attr unit dBm
par networkwireless.visualizer.ieee80211Visualizer icons "\"misc/signal_power_0 misc/signal_power_1 misc/signal_power_2 misc/signal_power_3\""
par networkwireless.visualizer.ieee80211Visualizer iconColor "\"dark\""
par networkwireless.visualizer.ieee80211Visualizer labelFont "\"<default>\""
par networkwireless.visualizer.ieee80211Visualizer labelColor "\"black\""
par networkwireless.visualizer.ieee80211Visualizer placementHint "\"top\""
par networkwireless.visualizer.ieee80211Visualizer placementPriority 0
par networkwireless.visualizer.ieee80211Visualizer zIndex 2
par networkwireless.visualizer.networkRouteVisualizer typename "\"inet.visualizer.canvas.networklayer.NetworkRouteCanvasVisualizer\""
par networkwireless.visualizer.networkRouteVisualizer visualizationTargetModule "\"^.^\""
par networkwireless.visualizer.networkRouteVisualizer visualizationSubjectModule "\"^.^\""
par networkwireless.visualizer.networkRouteVisualizer tags "\"\""
par networkwireless.visualizer.networkRouteVisualizer displayRoutes false
par networkwireless.visualizer.networkRouteVisualizer startPathSignal "\"packetReceivedFromUpper\""
par networkwireless.visualizer.networkRouteVisualizer extendPathSignal "\"packetReceivedFromLower\""
par networkwireless.visualizer.networkRouteVisualizer endPathSignal "\"packetSentToUpper\""
par networkwireless.visualizer.networkRouteVisualizer nodeFilter "\"*\""
attr mutable ""
par networkwireless.visualizer.networkRouteVisualizer packetFilter "(omnetpp::cValueHolder)holder: \"*\""
attr mutable ""
par networkwireless.visualizer.networkRouteVisualizer lineColor "\"dark\""
par networkwireless.visualizer.networkRouteVisualizer lineStyle "\"solid\""
par networkwireless.visualizer.networkRouteVisualizer lineWidth 3
par networkwireless.visualizer.networkRouteVisualizer lineSmooth false
par networkwireless.visualizer.networkRouteVisualizer lineShift 16
par networkwireless.visualizer.networkRouteVisualizer lineShiftMode "\"normal\""
par networkwireless.visualizer.networkRouteVisualizer lineContactSpacing 3
par networkwireless.visualizer.networkRouteVisualizer lineContactMode "\"rectangular\""
attr enum circular,rectangular
par networkwireless.visualizer.networkRouteVisualizer labelFormat "\"%n\""
par networkwireless.visualizer.networkRouteVisualizer labelFont "\"<default>, 8px\""
par networkwireless.visualizer.networkRouteVisualizer labelColor "\"\""
par networkwireless.visualizer.networkRouteVisualizer fadeOutMode "\"realTime\""
attr enum realTime,animationTime,simulationTime
par networkwireless.visualizer.networkRouteVisualizer fadeOutTime 1s
attr unit s
par networkwireless.visualizer.networkRouteVisualizer fadeOutAnimationSpeed 0
par networkwireless.visualizer.networkRouteVisualizer zIndex 3
par networkwireless.visualizer.routingTableVisualizer typename "\"inet.visualizer.canvas.networklayer.RoutingTableCanvasVisualizer\""
par networkwireless.visualizer.routingTableVisualizer visualizationTargetModule "\"^.^\""
par networkwireless.visualizer.routingTableVisualizer visualizationSubjectModule "\"^.^\""
par networkwireless.visualizer.routingTableVisualizer tags "\"\""
par networkwireless.visualizer.routingTableVisualizer displayRoutingTables false
par networkwireless.visualizer.routingTableVisualizer displayRoutesIndividually true
par networkwireless.visualizer.routingTableVisualizer displayLabels true
par networkwireless.visualizer.routingTableVisualizer destinationFilter "\"*\""
attr mutable ""
par networkwireless.visualizer.routingTableVisualizer nodeFilter "\"*\""
attr mutable ""
par networkwireless.visualizer.routingTableVisualizer lineColor "\"black\""
par networkwireless.visualizer.routingTableVisualizer lineStyle "\"solid\""
par networkwireless.visualizer.routingTableVisualizer lineWidth 2
par networkwireless.visualizer.routingTableVisualizer lineShift 16
par networkwireless.visualizer.routingTableVisualizer lineShiftMode "\"normal\""
par networkwireless.visualizer.routingTableVisualizer lineContactSpacing 3
par networkwireless.visualizer.routingTableVisualizer lineContactMode "\"rectangular\""
attr enum circular,rectangular
par networkwireless.visualizer.routingTableVisualizer labelFormat "\"%d/%m -> %g (%n)\""
attr mutable ""
par networkwireless.visualizer.routingTableVisualizer labelFont "\"<default>, 8px\""
par networkwireless.visualizer.routingTableVisualizer labelColor "\"black\""
par networkwireless.visualizer.routingTableVisualizer zIndex 0
par networkwireless.visualizer.transportRouteVisualizer typename "\"inet.visualizer.canvas.transportlayer.TransportRouteCanvasVisualizer\""
par networkwireless.visualizer.transportRouteVisualizer visualizationTargetModule "\"^.^\""
par networkwireless.visualizer.transportRouteVisualizer visualizationSubjectModule "\"^.^\""
par networkwireless.visualizer.transportRouteVisualizer tags "\"\""
par networkwireless.visualizer.transportRouteVisualizer displayRoutes false
par networkwireless.visualizer.transportRouteVisualizer startPathSignal "\"packetReceivedFromUpper\""
par networkwireless.visualizer.transportRouteVisualizer extendPathSignal "\"packetReceivedFromLower\""
par networkwireless.visualizer.transportRouteVisualizer endPathSignal "\"packetSentToUpper\""
par networkwireless.visualizer.transportRouteVisualizer nodeFilter "\"*\""
attr mutable ""
par networkwireless.visualizer.transportRouteVisualizer packetFilter "(omnetpp::cValueHolder)holder: \"*\""
attr mutable ""
par networkwireless.visualizer.transportRouteVisualizer lineColor "\"dark\""
par networkwireless.visualizer.transportRouteVisualizer lineStyle "\"solid\""
par networkwireless.visualizer.transportRouteVisualizer lineWidth 3
par networkwireless.visualizer.transportRouteVisualizer lineSmooth false
par networkwireless.visualizer.transportRouteVisualizer lineShift 16
par networkwireless.visualizer.transportRouteVisualizer lineShiftMode "\"normal\""
par networkwireless.visualizer.transportRouteVisualizer lineContactSpacing 3
par networkwireless.visualizer.transportRouteVisualizer lineContactMode "\"rectangular\""
attr enum circular,rectangular
par networkwireless.visualizer.transportRouteVisualizer labelFormat "\"%n\""
par networkwireless.visualizer.transportRouteVisualizer labelFont "\"<default>, 8px\""
par networkwireless.visualizer.transportRouteVisualizer labelColor "\"\""
par networkwireless.visualizer.transportRouteVisualizer fadeOutMode "\"realTime\""
attr enum realTime,animationTime,simulationTime
par networkwireless.visualizer.transportRouteVisualizer fadeOutTime 1s
attr unit s
par networkwireless.visualizer.transportRouteVisualizer fadeOutAnimationSpeed 0
par networkwireless.visualizer.transportRouteVisualizer zIndex 4
par networkwireless.visualizer.transportConnectionVisualizer typename "\"inet.visualizer.canvas.transportlayer.TransportConnectionCanvasVisualizer\""
par networkwireless.visualizer.transportConnectionVisualizer visualizationTargetModule "\"^.^\""
par networkwireless.visualizer.transportConnectionVisualizer visualizationSubjectModule "\"^.^\""
par networkwireless.visualizer.transportConnectionVisualizer tags "\"\""
par networkwireless.visualizer.transportConnectionVisualizer networkNodeVisualizerModule "\"^.networkNodeVisualizer\""
par networkwireless.visualizer.transportConnectionVisualizer displayTransportConnections false
par networkwireless.visualizer.transportConnectionVisualizer sourceNodeFilter "\"*\""
attr mutable ""
par networkwireless.visualizer.transportConnectionVisualizer sourcePortFilter "\"*\""
attr mutable ""
par networkwireless.visualizer.transportConnectionVisualizer destinationNodeFilter "\"*\""
attr mutable ""
par networkwireless.visualizer.transportConnectionVisualizer destinationPortFilter "\"*\""
attr mutable ""
par networkwireless.visualizer.transportConnectionVisualizer icon "\"misc/marker_s\""
par networkwireless.visualizer.transportConnectionVisualizer iconColor "\"dark\""
par networkwireless.visualizer.transportConnectionVisualizer labelFont "\"<default>\""
par networkwireless.visualizer.transportConnectionVisualizer labelColor "\"black\""
par networkwireless.visualizer.transportConnectionVisualizer placementHint "\"top\""
par networkwireless.visualizer.transportConnectionVisualizer placementPriority 0
par networkwireless.visualizer.transportConnectionVisualizer zIndex 4
par networkwireless.visualizer.failureProtectionConfigurationVisualizer typename "\"inet.visualizer.canvas.configurator.FailureProtectionConfigurationCanvasVisualizer\""
par networkwireless.visualizer.failureProtectionConfigurationVisualizer visualizationTargetModule "\"^.^\""
par networkwireless.visualizer.failureProtectionConfigurationVisualizer visualizationSubjectModule "\"^.^\""
par networkwireless.visualizer.failureProtectionConfigurationVisualizer tags "\"\""
par networkwireless.visualizer.failureProtectionConfigurationVisualizer displayTrees false
par networkwireless.visualizer.failureProtectionConfigurationVisualizer lineColor "\"dark\""
par networkwireless.visualizer.failureProtectionConfigurationVisualizer lineStyle "\"solid\""
par networkwireless.visualizer.failureProtectionConfigurationVisualizer lineWidth 3
par networkwireless.visualizer.failureProtectionConfigurationVisualizer lineSmooth false
par networkwireless.visualizer.failureProtectionConfigurationVisualizer lineShift 16
par networkwireless.visualizer.failureProtectionConfigurationVisualizer lineShiftMode "\"normal\""
par networkwireless.visualizer.failureProtectionConfigurationVisualizer lineContactSpacing 3
par networkwireless.visualizer.failureProtectionConfigurationVisualizer lineContactMode "\"rectangular\""
attr enum circular,rectangular
par networkwireless.visualizer.failureProtectionConfigurationVisualizer failureProtectionConfiguratorModule "\"failureProtectionConfigurator\""
par networkwireless.visualizer.failureProtectionConfigurationVisualizer streamFilter "\"*\""
par networkwireless.visualizer.failureProtectionConfigurationVisualizer zIndex 3
par networkwireless.visualizer.streamRedundancyConfigurationVisualizer typename "\"inet.visualizer.canvas.configurator.StreamRedundancyConfigurationCanvasVisualizer\""
par networkwireless.visualizer.streamRedundancyConfigurationVisualizer visualizationTargetModule "\"^.^\""
par networkwireless.visualizer.streamRedundancyConfigurationVisualizer visualizationSubjectModule "\"^.^\""
par networkwireless.visualizer.streamRedundancyConfigurationVisualizer tags "\"\""
par networkwireless.visualizer.streamRedundancyConfigurationVisualizer displayTrees false
par networkwireless.visualizer.streamRedundancyConfigurationVisualizer lineColor "\"dark\""
par networkwireless.visualizer.streamRedundancyConfigurationVisualizer lineStyle "\"solid\""
par networkwireless.visualizer.streamRedundancyConfigurationVisualizer lineWidth 3
par networkwireless.visualizer.streamRedundancyConfigurationVisualizer lineSmooth false
par networkwireless.visualizer.streamRedundancyConfigurationVisualizer lineShift 16
par networkwireless.visualizer.streamRedundancyConfigurationVisualizer lineShiftMode "\"normal\""
par networkwireless.visualizer.streamRedundancyConfigurationVisualizer lineContactSpacing 3
par networkwireless.visualizer.streamRedundancyConfigurationVisualizer lineContactMode "\"rectangular\""
attr enum circular,rectangular
par networkwireless.visualizer.streamRedundancyConfigurationVisualizer streamRedundancyConfiguratorModule "\"streamRedundancyConfigurator\""
par networkwireless.visualizer.streamRedundancyConfigurationVisualizer streamFilter "\"*\""
par networkwireless.visualizer.streamRedundancyConfigurationVisualizer zIndex 3
par networkwireless.visualizer typename "\"inet.visualizer.canvas.integrated.IntegratedCanvasVisualizer\""
par networkwireless.configurator typename "\"inet.networklayer.configurator.ipv4.Ipv4NetworkConfigurator\""
par networkwireless.configurator minLinkWeight 0.001
par networkwireless.configurator configureIsolatedNetworksSeparatly false
par networkwireless.configurator config "<config>...</config> at content:1"
par networkwireless.configurator assignAddresses true
par networkwireless.configurator assignUniqueAddresses true
par networkwireless.configurator assignDisjunctSubnetAddresses false
par networkwireless.configurator addStaticRoutes true
par networkwireless.configurator addDefaultRoutes true
par networkwireless.configurator addSubnetRoutes true
par networkwireless.configurator addDirectRoutes true
par networkwireless.configurator optimizeRoutes true
par networkwireless.configurator dumpTopology false
par networkwireless.configurator dumpLinks false
par networkwireless.configurator dumpAddresses false
par networkwireless.configurator dumpRoutes false
par networkwireless.configurator dumpConfig "\"\""
par networkwireless.radioMedium.propagation typename "\"inet.physicallayer.wireless.common.propagation.ConstantSpeedPropagation\""
par networkwireless.radioMedium.propagation propagationSpeed 2.99792e+08mps
attr unit mps
par networkwireless.radioMedium.propagation ignoreMovementDuringTransmission true
par networkwireless.radioMedium.propagation ignoreMovementDuringPropagation true
par networkwireless.radioMedium.propagation ignoreMovementDuringReception true
scalar networkwireless.radioMedium.propagation "Arrival computation count" 0
par networkwireless.radioMedium.analogModel typename "\"inet.physicallayer.wireless.common.analogmodel.packetlevel.ScalarAnalogModel\""
par networkwireless.radioMedium.analogModel ignorePartialInterference false
par networkwireless.radioMedium.backgroundNoise typename "\"inet.physicallayer.wireless.common.backgroundnoise.IsotropicScalarBackgroundNoise\""
par networkwireless.radioMedium.backgroundNoise power -110dBm
attr unit dBm
par networkwireless.radioMedium.backgroundNoise bandwidth "nan Hz"
attr unit Hz
par networkwireless.radioMedium.pathLoss typename "\"inet.physicallayer.wireless.common.pathloss.FreeSpacePathLoss\""
par networkwireless.radioMedium.pathLoss alpha 2
par networkwireless.radioMedium.pathLoss systemLoss 0dB
attr unit dB
par networkwireless.radioMedium.mediumLimitCache typename "\"inet.physicallayer.wireless.common.medium.MediumLimitCache\""
par networkwireless.radioMedium.mediumLimitCache centerFrequency 2.4e+09Hz
attr unit Hz
par networkwireless.radioMedium.mediumLimitCache maxSpeed "nan mps"
attr unit mps
par networkwireless.radioMedium.mediumLimitCache maxTransmissionPower "nan W"
attr unit W
par networkwireless.radioMedium.mediumLimitCache minInterferencePower -110dBm
attr unit dBm
par networkwireless.radioMedium.mediumLimitCache minReceptionPower -85dBm
attr unit dBm
par networkwireless.radioMedium.mediumLimitCache maxAntennaGain 0dB
attr unit dB
par networkwireless.radioMedium.mediumLimitCache minInterferenceTime 1e-12s
attr unit s
par networkwireless.radioMedium.mediumLimitCache maxTransmissionDuration 0.01s
attr unit s
par networkwireless.radioMedium.mediumLimitCache maxCommunicationRange "nan m"
attr unit m
par networkwireless.radioMedium.mediumLimitCache maxInterferenceRange "nan m"
attr unit m
par networkwireless.radioMedium.communicationCache typename "\"inet.physicallayer.wireless.common.communicationcache.VectorCommunicationCache\""
par networkwireless.radioMedium typename "\"inet.physicallayer.wireless.ieee80211.packetlevel.Ieee80211ScalarRadioMedium\""
par networkwireless.radioMedium physicalEnvironmentModule "\"physicalEnvironment\""
par networkwireless.radioMedium signalAnalogRepresentation "\"scalar\""
attr enum unitDisk,scalar,dimensional
par networkwireless.radioMedium rangeFilter "\"\""
par networkwireless.radioMedium radioModeFilter false
par networkwireless.radioMedium listeningFilter false
par networkwireless.radioMedium macAddressFilter false
par networkwireless.radioMedium recordTransmissionLog false
par networkwireless.radioMedium recordReceptionLog false
scalar networkwireless.radioMedium "transmission count" 0
scalar networkwireless.radioMedium "signal send count" 0
scalar networkwireless.radioMedium "reception computation count" 0
scalar networkwireless.radioMedium "interference computation count" 12
scalar networkwireless.radioMedium "reception decision computation count" 0
scalar networkwireless.radioMedium "listening decision computation count" 12
scalar networkwireless.radioMedium "reception cache hit" -nan
attr unit %
scalar networkwireless.radioMedium "interference cache hit" -nan
attr unit %
scalar networkwireless.radioMedium "noise cache hit" -nan
attr unit %
scalar networkwireless.radioMedium "snir cache hit" -nan
attr unit %
scalar networkwireless.radioMedium "reception decision cache hit" -nan
attr unit %
scalar networkwireless.radioMedium "reception result cache hit" -nan
attr unit %
par networkwireless.wirelessHost1.radioIn[0].channel typename "\"ned.IdealChannel\""
par networkwireless.wirelessHost1.mobility typename "\"inet.mobility.single.MassMobility\""
par networkwireless.wirelessHost1.mobility subjectModule "\"^\""
par networkwireless.wirelessHost1.mobility coordinateSystemModule "\"\""
par networkwireless.wirelessHost1.mobility displayStringTextFormat "\"p: %p\\nv: %v\""
attr mutable ""
par networkwireless.wirelessHost1.mobility updateDisplayString true
par networkwireless.wirelessHost1.mobility constraintAreaMinX 0m
attr unit m
par networkwireless.wirelessHost1.mobility constraintAreaMinY 0m
attr unit m
par networkwireless.wirelessHost1.mobility constraintAreaMinZ "-inf m"
attr unit m
par networkwireless.wirelessHost1.mobility constraintAreaMaxX 600m
attr unit m
par networkwireless.wirelessHost1.mobility constraintAreaMaxY 400m
attr unit m
par networkwireless.wirelessHost1.mobility constraintAreaMaxZ "inf m"
attr unit m
par networkwireless.wirelessHost1.mobility updateInterval 0.1s
attr unit s
par networkwireless.wirelessHost1.mobility faceForward true
par networkwireless.wirelessHost1.mobility initialX 329.288m
attr unit m
par networkwireless.wirelessHost1.mobility initialY 237.138m
attr unit m
par networkwireless.wirelessHost1.mobility initialZ 0m
attr unit m
par networkwireless.wirelessHost1.mobility initialMovementHeading 303.936deg
attr unit deg
par networkwireless.wirelessHost1.mobility initialMovementElevation 0deg
attr unit deg
par networkwireless.wirelessHost1.mobility initFromDisplayString true
par networkwireless.wirelessHost1.mobility changeInterval 10s
attr unit s
par networkwireless.wirelessHost1.mobility angleDelta 0deg
attr unit deg
par networkwireless.wirelessHost1.mobility rotationAxisAngle 0deg
attr unit deg
par networkwireless.wirelessHost1.mobility speed "truncnormal(15mps, 5mps)"
attr mutable ""
attr unit mps
par networkwireless.wirelessHost1.interfaceTable typename "\"inet.networklayer.common.InterfaceTable\""
par networkwireless.wirelessHost1.interfaceTable displayAddresses false
par networkwireless.wirelessHost1.cb typename "\"inet.common.MessageDispatcher\""
par networkwireless.wirelessHost1.cb displayStringTextFormat "\"processed %p pk (%l)\""
par networkwireless.wirelessHost1.cb forwardServiceRegistration true
par networkwireless.wirelessHost1.cb forwardProtocolRegistration true
par networkwireless.wirelessHost1.bl typename "\"inet.common.MessageDispatcher\""
par networkwireless.wirelessHost1.bl displayStringTextFormat "\"processed %p pk (%l)\""
par networkwireless.wirelessHost1.bl forwardServiceRegistration true
par networkwireless.wirelessHost1.bl forwardProtocolRegistration true
par networkwireless.wirelessHost1.li typename "\"inet.common.MessageDispatcher\""
par networkwireless.wirelessHost1.li displayStringTextFormat "\"processed %p pk (%l)\""
par networkwireless.wirelessHost1.li forwardServiceRegistration true
par networkwireless.wirelessHost1.li forwardProtocolRegistration true
par networkwireless.wirelessHost1.lo[0].upperLayerIn.channel typename "\"ned.IdealChannel\""
par networkwireless.wirelessHost1.lo[0].lo.upperLayerOut.channel typename "\"ned.IdealChannel\""
par networkwireless.wirelessHost1.lo[0].lo typename "\"inet.linklayer.loopback.Loopback\""
par networkwireless.wirelessHost1.lo[0].lo interfaceTableModule "\"networkwireless.wirelessHost1.interfaceTable\""
par networkwireless.wirelessHost1.lo[0].lo mtu 4470B
attr unit B
scalar networkwireless.wirelessHost1.lo[0].lo rcvdPkFromHl:count 0
attr interpolationmode none
attr recordingmode count
attr source packetReceivedFromUpper
attr title "packets received from higher layer, count"
scalar networkwireless.wirelessHost1.lo[0].lo rcvdPkFromHl:sum(packetBytes) 0
attr interpolationmode none
attr recordingmode sum(packetBytes)
attr source packetReceivedFromUpper
attr title "packets received from higher layer, sum(packetBytes)"
scalar networkwireless.wirelessHost1.lo[0].lo passedUpPk:count 0
attr interpolationmode none
attr recordingmode count
attr source packetSentToUpper
attr title "packets passed to higher layer, count"
scalar networkwireless.wirelessHost1.lo[0].lo passedUpPk:sum(packetBytes) 0
attr interpolationmode none
attr recordingmode sum(packetBytes)
attr source packetSentToUpper
attr title "packets passed to higher layer, sum(packetBytes)"
par networkwireless.wirelessHost1.lo[0] typename "\"inet.linklayer.loopback.LoopbackInterface\""
par networkwireless.wirelessHost1.lo[0] displayStringTextFormat "\"%a (%i)\\n%m\""
par networkwireless.wirelessHost1.lo[0] recordPcap false
par networkwireless.wirelessHost1.lo[0] numPcapRecorders 0
par networkwireless.wirelessHost1.lo[0] interfaceTableModule "\"networkwireless.wirelessHost1.interfaceTable\""
scalar networkwireless.wirelessHost1.lo[0] packetDropInterfaceDown:count 0
attr interpolationmode none
attr recordingmode count
attr source packetDropReasonIsInterfaceDown(packetDropped)
attr title "packet drops: interface down, count"
scalar networkwireless.wirelessHost1.lo[0] packetDropInterfaceDown:sum(packetBytes) 0
attr interpolationmode none
attr recordingmode sum(packetBytes)
attr source packetDropReasonIsInterfaceDown(packetDropped)
attr title "packet drops: interface down, sum(packetBytes)"
scalar networkwireless.wirelessHost1.lo[0] packetDropNoCarrier:count 0
attr interpolationmode none
attr recordingmode count
attr source packetDropReasonIsNoCarrier(packetDropped)
attr title "packet drops: no carrier, count"
scalar networkwireless.wirelessHost1.lo[0] packetDropNoCarrier:sum(packetBytes) 0
attr interpolationmode none
attr recordingmode sum(packetBytes)
attr source packetDropReasonIsNoCarrier(packetDropped)
attr title "packet drops: no carrier, sum(packetBytes)"
par networkwireless.wirelessHost1.wlan[0].radioIn.channel typename "\"ned.IdealChannel\""
par networkwireless.wirelessHost1.wlan[0].llc.upperLayerOut.channel typename "\"ned.IdealChannel\""
par networkwireless.wirelessHost1.wlan[0].upperLayerIn.channel typename "\"ned.IdealChannel\""
par networkwireless.wirelessHost1.wlan[0].mib typename "\"inet.linklayer.ieee80211.mib.Ieee80211Mib\""
par networkwireless.wirelessHost1.wlan[0].llc typename "\"inet.linklayer.ieee80211.llc.Ieee80211LlcLpd\""
par networkwireless.wirelessHost1.wlan[0].llc registerProtocol false
par networkwireless.wirelessHost1.wlan[0].agent typename "\"inet.linklayer.ieee80211.mgmt.Ieee80211AgentSta\""
par networkwireless.wirelessHost1.wlan[0].agent interfaceTableModule "\"networkwireless.wirelessHost1.interfaceTable\""
par networkwireless.wirelessHost1.wlan[0].agent mibModule "\"networkwireless.wirelessHost1.wlan[0].mib\""
par networkwireless.wirelessHost1.wlan[0].agent activeScan true
par networkwireless.wirelessHost1.wlan[0].agent channelsToScan "\"\""
par networkwireless.wirelessHost1.wlan[0].agent probeDelay 0.1s
attr unit s
par networkwireless.wirelessHost1.wlan[0].agent minChannelTime 0.15s
attr unit s
par networkwireless.wirelessHost1.wlan[0].agent maxChannelTime 0.3s
attr unit s
par networkwireless.wirelessHost1.wlan[0].agent authenticationTimeout 5s
attr unit s
par networkwireless.wirelessHost1.wlan[0].agent associationTimeout 5s
attr unit s
par networkwireless.wirelessHost1.wlan[0].agent startingTime -1s
attr unit s
par networkwireless.wirelessHost1.wlan[0].agent defaultSsid "\"SSID\""
scalar networkwireless.wirelessHost1.wlan[0].agent dropConfirm:count 0
attr recordingmode count
attr title "dropped confirms, count"
scalar networkwireless.wirelessHost1.wlan[0].agent acceptConfirm:count 0
attr recordingmode count
attr title "accepted confirms, count"
scalar networkwireless.wirelessHost1.wlan[0].agent sentRequest:count 0
attr recordingmode count
attr title "sent requests, count"
par networkwireless.wirelessHost1.wlan[0].mgmt typename "\"inet.linklayer.ieee80211.mgmt.Ieee80211MgmtSta\""
par networkwireless.wirelessHost1.wlan[0].mgmt interfaceTableModule "\"networkwireless.wirelessHost1.interfaceTable\""
par networkwireless.wirelessHost1.wlan[0].mgmt numChannels 1
par networkwireless.wirelessHost1.wlan[0].mgmt mibModule "\"networkwireless.wirelessHost1.wlan[0].mib\""
par networkwireless.wirelessHost1.wlan[0].mgmt macModule "\"networkwireless.wirelessHost1.wlan[0].mac\""
par networkwireless.wirelessHost1.wlan[0].mac.dcf.channelAccess.pendingQueue typename "\"inet.linklayer.ieee80211.mac.queue.PendingQueue\""
par networkwireless.wirelessHost1.wlan[0].mac.dcf.channelAccess.pendingQueue displayStringTextFormat "\"contains %p pk (%l) pushed %u\\npulled %o removed %r dropped %d\""
par networkwireless.wirelessHost1.wlan[0].mac.dcf.channelAccess.pendingQueue packetCapacity 100
par networkwireless.wirelessHost1.wlan[0].mac.dcf.channelAccess.pendingQueue dataCapacity -1b
attr unit b
par networkwireless.wirelessHost1.wlan[0].mac.dcf.channelAccess.pendingQueue dropperClass "\"inet::queueing::PacketAtCollectionEndDropper\""
par networkwireless.wirelessHost1.wlan[0].mac.dcf.channelAccess.pendingQueue comparatorClass "\"inet::ieee80211::MgmtOverDataComparator\""
par networkwireless.wirelessHost1.wlan[0].mac.dcf.channelAccess.pendingQueue bufferModule "\"\""
scalar networkwireless.wirelessHost1.wlan[0].mac.dcf.channelAccess.pendingQueue queueLength:last 0
attr autoWarmupFilter false
attr interpolationmode sample-hold
attr recordingmode last
attr source "warmup(atomic(constant0(packetPushEnded) + count(packetPushStarted) - count(packetPulled) - count(packetRemoved) - count(packetDropped)))"
attr title "queue length, last"
attr unit pk
scalar networkwireless.wirelessHost1.wlan[0].mac.dcf.channelAccess.pendingQueue queueLength:max 0
attr autoWarmupFilter false
attr interpolationmode sample-hold
attr recordingmode max
attr source "warmup(atomic(constant0(packetPushEnded) + count(packetPushStarted) - count(packetPulled) - count(packetRemoved) - count(packetDropped)))"
attr title "queue length, max"
attr unit pk
scalar networkwireless.wirelessHost1.wlan[0].mac.dcf.channelAccess.pendingQueue queueLength:timeavg -nan
attr autoWarmupFilter false
attr interpolationmode sample-hold
attr recordingmode timeavg
attr source "warmup(atomic(constant0(packetPushEnded) + count(packetPushStarted) - count(packetPulled) - count(packetRemoved) - count(packetDropped)))"
attr title "queue length, timeavg"
attr unit pk
scalar networkwireless.wirelessHost1.wlan[0].mac.dcf.channelAccess.pendingQueue queueBitLength:last 0
attr autoWarmupFilter false
attr interpolationmode sample-hold
attr recordingmode last
attr source "warmup(atomic(constant0(packetPushEnded) + sum(packetLength(packetPushStarted)) - sum(packetLength(packetPulled)) - sum(packetLength(packetRemoved)) - sum(packetLength(packetDropped))))"
attr title "queue bit length, last"
attr unit b
scalar networkwireless.wirelessHost1.wlan[0].mac.dcf.channelAccess.pendingQueue queueBitLength:max 0
attr autoWarmupFilter false
attr interpolationmode sample-hold
attr recordingmode max
attr source "warmup(atomic(constant0(packetPushEnded) + sum(packetLength(packetPushStarted)) - sum(packetLength(packetPulled)) - sum(packetLength(packetRemoved)) - sum(packetLength(packetDropped))))"
attr title "queue bit length, max"
attr unit b
scalar networkwireless.wirelessHost1.wlan[0].mac.dcf.channelAccess.pendingQueue queueBitLength:timeavg -nan
attr autoWarmupFilter false
attr interpolationmode sample-hold
attr recordingmode timeavg
attr source "warmup(atomic(constant0(packetPushEnded) + sum(packetLength(packetPushStarted)) - sum(packetLength(packetPulled)) - sum(packetLength(packetRemoved)) - sum(packetLength(packetDropped))))"
attr title "queue bit length, timeavg"
attr unit b
statistic networkwireless.wirelessHost1.wlan[0].mac.dcf.channelAccess.pendingQueue queueingTime:histogram
field count 0
field mean -nan
field stddev -nan
field min -nan
field max -nan
field sum 0
field sqrsum 0
attr interpolationmode none
attr recordingmode histogram
attr source queueingTime(packetPulled)
attr title "queueing times"
attr unit s
bin	-inf	0
bin	0	0
bin	1	0
scalar networkwireless.wirelessHost1.wlan[0].mac.dcf.channelAccess.pendingQueue outgoingPackets:count 0
attr recordingmode count
attr source packetPulled
attr title "outgoing packets, count"
attr unit pk
scalar networkwireless.wirelessHost1.wlan[0].mac.dcf.channelAccess.pendingQueue outgoingPacketLengths:sum 0
attr interpolationmode none
attr recordingmode sum
attr source packetLength(packetPulled)
attr title "outgoing packet lengths, sum"
attr unit b
statistic networkwireless.wirelessHost1.wlan[0].mac.dcf.channelAccess.pendingQueue outgoingPacketLengths:histogram
field count 0
field mean -nan
field stddev -nan
field min -nan
field max -nan
field sum 0
field sqrsum 0
attr interpolationmode none
attr recordingmode histogram
attr source packetLength(packetPulled)
attr title "outgoing packet lengths"
attr unit b
bin	-inf	0
bin	0	0
bin	1	0
statistic networkwireless.wirelessHost1.wlan[0].mac.dcf.channelAccess.pendingQueue flowQueueingTime:histogram
field count 0
field mean -nan
field stddev -nan
field min -nan
field max -nan
field sum 0
field sqrsum 0
attr interpolationmode none
attr recordingmode histogram
attr source queueingTime(demuxFlow(packetPulled))
attr title "flow queueing times"
attr unit s
bin	-inf	0
bin	0	0
bin	1	0
scalar networkwireless.wirelessHost1.wlan[0].mac.dcf.channelAccess.pendingQueue incomingPackets:count 0
attr recordingmode count
attr source packetPushStarted
attr title "incoming packets, count"
attr unit pk
scalar networkwireless.wirelessHost1.wlan[0].mac.dcf.channelAccess.pendingQueue incomingPacketLengths:sum 0
attr interpolationmode none
attr recordingmode sum
attr source packetLength(packetPushStarted)
attr title "incoming packet lengths, sum"
attr unit b
statistic networkwireless.wirelessHost1.wlan[0].mac.dcf.channelAccess.pendingQueue incomingPacketLengths:histogram
field count 0
field mean -nan
field stddev -nan
field min -nan
field max -nan
field sum 0
field sqrsum 0
attr interpolationmode none
attr recordingmode histogram
attr source packetLength(packetPushStarted)
attr title "incoming packet lengths"
attr unit b
bin	-inf	0
bin	0	0
bin	1	0
scalar networkwireless.wirelessHost1.wlan[0].mac.dcf.channelAccess.pendingQueue droppedPacketsQueueOverflow:count 0
attr interpolationmode none
attr recordingmode count
attr source packetDropReasonIsQueueOverflow(packetDropped)
attr title "dropped packets: queue overflow, count"
attr unit pk
scalar networkwireless.wirelessHost1.wlan[0].mac.dcf.channelAccess.pendingQueue droppedPacketLengthsQueueOverflow:sum 0
attr interpolationmode none
attr recordingmode sum
attr source packetLength(packetDropReasonIsQueueOverflow(packetDropped))
attr title "dropped packet lengths: queue overflow, sum"
attr unit b
par networkwireless.wirelessHost1.wlan[0].mac.dcf.channelAccess.inProgressFrames typename "\"inet.linklayer.ieee80211.mac.queue.InProgressFrames\""
par networkwireless.wirelessHost1.wlan[0].mac.dcf.channelAccess.inProgressFrames pendingQueueModule "\"^.pendingQueue\""
par networkwireless.wirelessHost1.wlan[0].mac.dcf.channelAccess.inProgressFrames originatorMacDataServiceModule "\"^.^.originatorMacDataService\""
par networkwireless.wirelessHost1.wlan[0].mac.dcf.channelAccess.inProgressFrames ackHandlerModule "\"^.^.ackHandler\""
statistic networkwireless.wirelessHost1.wlan[0].mac.dcf.channelAccess.inProgressFrames queueingTime:histogram
field count 0
field mean -nan
field stddev -nan
field min -nan
field max -nan
field sum 0
field sqrsum 0
attr interpolationmode none
attr recordingmode histogram
attr source queueingTime(packetDequeued)
attr title "queueing times"
bin	-inf	0
bin	0	0
bin	1	0
scalar networkwireless.wirelessHost1.wlan[0].mac.dcf.channelAccess.inProgressFrames queueLength:max 0
attr autoWarmupFilter false
attr interpolationmode sample-hold
attr recordingmode max
attr source "warmup(count(packetEnqueued) - count(packetDequeued))"
attr title "queue length, max"
scalar networkwireless.wirelessHost1.wlan[0].mac.dcf.channelAccess.inProgressFrames queueLength:timeavg -nan
attr autoWarmupFilter false
attr interpolationmode sample-hold
attr recordingmode timeavg
attr source "warmup(count(packetEnqueued) - count(packetDequeued))"
attr title "queue length, timeavg"
par networkwireless.wirelessHost1.wlan[0].mac.dcf.channelAccess.contention typename "\"inet.linklayer.ieee80211.mac.contention.Contention\""
par networkwireless.wirelessHost1.wlan[0].mac.dcf.channelAccess.contention initialChannelBusy true
par networkwireless.wirelessHost1.wlan[0].mac.dcf.channelAccess.contention backoffOptimization true
scalar networkwireless.wirelessHost1.wlan[0].mac.dcf.channelAccess.contention channelAccessGranted:count 0
attr recordingmode count
attr title "channel access granted, count"
scalar networkwireless.wirelessHost1.wlan[0].mac.dcf.channelAccess.contention stateChanged:count 2
attr enum IDLE,DEFER,IFS_AND_BACKOFF
attr interpolationmode none
attr recordingmode count
attr title "contention state changed, count"
attr type enum
par networkwireless.wirelessHost1.wlan[0].mac.dcf.channelAccess typename "\"inet.linklayer.ieee80211.mac.channelaccess.Dcaf\""
par networkwireless.wirelessHost1.wlan[0].mac.dcf.channelAccess difsn -1
par networkwireless.wirelessHost1.wlan[0].mac.dcf.channelAccess cwMin -1
par networkwireless.wirelessHost1.wlan[0].mac.dcf.channelAccess cwMax -1
par networkwireless.wirelessHost1.wlan[0].mac.dcf.channelAccess rxModule "\"^.^.rx\""
scalar networkwireless.wirelessHost1.wlan[0].mac.dcf.channelAccess channelOwnershipChanged:count 0
attr interpolationmode sample-hold
attr recordingmode count
attr title "channel ownership, count"
par networkwireless.wirelessHost1.wlan[0].mac.dcf.originatorMacDataService.fragmentationPolicy typename "\"inet.linklayer.ieee80211.mac.fragmentation.BasicFragmentationPolicy\""
par networkwireless.wirelessHost1.wlan[0].mac.dcf.originatorMacDataService.fragmentationPolicy fragmentationThreshold 1500B
attr unit B
par networkwireless.wirelessHost1.wlan[0].mac.dcf.originatorMacDataService typename "\"inet.linklayer.ieee80211.mac.originator.OriginatorMacDataService\""
scalar networkwireless.wirelessHost1.wlan[0].mac.dcf.originatorMacDataService packetAggregated:count 0
attr recordingmode count
attr title "packets aggregated, count"
scalar networkwireless.wirelessHost1.wlan[0].mac.dcf.originatorMacDataService packetFragmented:count 0
attr recordingmode count
attr title "packets fragmented, count"
par networkwireless.wirelessHost1.wlan[0].mac.dcf.recipientMacDataService typename "\"inet.linklayer.ieee80211.mac.recipient.RecipientMacDataService\""
[...]
attr unit Hz
par networkwireless.accessPoint2.wlan[0].radio.receiver modulation "\"BPSK\""
par networkwireless.accessPoint2.wlan[0].radio.receiver opMode "\"g(mixed)\""
attr enum a,b,g(erp),g(mixed),n(mixed-2.4Ghz),p,ac
par networkwireless.accessPoint2.wlan[0].radio.receiver bandName "\"2.4 GHz\""
attr enum "2.4 GHz,5 GHz,5 GHz (20 MHz),5 GHz (40 MHz),5 GHz (80 MHz),5 GHz (160 MHz),5.9 GHz"
par networkwireless.accessPoint2.wlan[0].radio.receiver channelNumber 0
par networkwireless.accessPoint2.wlan[0].radio typename "\"inet.physicallayer.wireless.ieee80211.packetlevel.Ieee80211ScalarRadio\""
par networkwireless.accessPoint2.wlan[0].radio radioMediumModule "\"radioMedium\""
par networkwireless.accessPoint2.wlan[0].radio energySourceModule "\"\""
par networkwireless.accessPoint2.wlan[0].radio initialRadioMode "\"off\""
attr enum off,sleep,receiver,transmitter,transceiver
par networkwireless.accessPoint2.wlan[0].radio switchingTimes "\"ms 0 0 0 0 0 0 0 0 0 0 0 0 0 0 0 0 0 0 0 0 0 0 0 0 0\""
par networkwireless.accessPoint2.wlan[0].radio sendRawBytes false
par networkwireless.accessPoint2.wlan[0].radio separateTransmissionParts false
par networkwireless.accessPoint2.wlan[0].radio separateReceptionParts false
par networkwireless.accessPoint2.wlan[0].radio displayCommunicationRange false
par networkwireless.accessPoint2.wlan[0].radio displayInterferenceRange false
par networkwireless.accessPoint2.wlan[0].radio centerFrequency 2.412e+09Hz
attr unit Hz
par networkwireless.accessPoint2.wlan[0].radio bandwidth "nan Hz"
attr unit Hz
par networkwireless.accessPoint2.wlan[0].radio signalAnalogRepresentation "\"scalar\""
attr enum scalar,dimensional
par networkwireless.accessPoint2.wlan[0].radio opMode "\"g(mixed)\""
attr enum a,b,g(erp),g(mixed),n(mixed-2.4Ghz),p,ac
par networkwireless.accessPoint2.wlan[0].radio bandName "\"2.4 GHz\""
attr enum "2.4 GHz,5 GHz,5 GHz (20 MHz),5 GHz (40 MHz),5 GHz (80 MHz),5 GHz (160 MHz),5.9 GHz"
par networkwireless.accessPoint2.wlan[0].radio channelNumber 0
par networkwireless.accessPoint2.wlan[0].radio crcMode "\"declared\""
attr enum declared,computed
statistic networkwireless.accessPoint2.wlan[0].radio radioChannel:histogram
field count 1
field mean 0
field stddev -nan
field min 0
field max 0
field sum 0
field sqrsum 0
attr interpolationmode sample-hold
attr recordingmode histogram
attr source radioChannelChanged
attr title "Radio channel"
bin	-inf	0
bin	-0.5	0
bin	-0.48	0
bin	-0.46	0
bin	-0.44	0
bin	-0.42	0
bin	-0.4	0
bin	-0.38	0
bin	-0.36	0
bin	-0.34	0
bin	-0.32	0
bin	-0.3	0
bin	-0.28	0
bin	-0.26	0
bin	-0.24	0
bin	-0.22	0
bin	-0.2	0
bin	-0.18	0
bin	-0.16	0
bin	-0.14	0
bin	-0.12	0
bin	-0.1	0
bin	-0.08	0
bin	-0.06	0
bin	-0.04	0
bin	-0.02	0
bin	0	1
bin	0.02	0
bin	0.04	0
bin	0.06	0
bin	0.08	0
bin	0.1	0
bin	0.12	0
bin	0.14	0
bin	0.16	0
bin	0.18	0
bin	0.2	0
bin	0.22	0
bin	0.24	0
bin	0.26	0
bin	0.28	0
bin	0.3	0
bin	0.32	0
bin	0.34	0
bin	0.36	0
bin	0.38	0
bin	0.4	0
bin	0.42	0
bin	0.44	0
bin	0.46	0
bin	0.48	0
bin	0.5	0
scalar networkwireless.accessPoint2.wlan[0].radio radioMode:count 3
attr interpolationmode sample-hold
attr recordingmode count
attr source radioModeChanged
attr title "Radio mode, count"
scalar networkwireless.accessPoint2.wlan[0].radio receptionState:count 1
attr interpolationmode sample-hold
attr recordingmode count
attr source receptionStateChanged
attr title "Radio reception state, count"
scalar networkwireless.accessPoint2.wlan[0].radio transmissionState:count 0
attr interpolationmode sample-hold
attr recordingmode count
attr source transmissionStateChanged
attr title "Radio transmission state, count"
statistic networkwireless.accessPoint2.wlan[0].radio minSnir:histogram
field count 0
field mean -nan
field stddev -nan
field min -nan
field max -nan
field sum 0
field sqrsum 0
attr recordingmode histogram
attr source minimumSnir(packetSentToUpper)
attr title "Min SNIR"
bin	-inf	0
bin	0	0
bin	1	0
statistic networkwireless.accessPoint2.wlan[0].radio packetErrorRate:histogram
field count 0
field mean -nan
field stddev -nan
field min -nan
field max -nan
field sum 0
field sqrsum 0
attr recordingmode histogram
attr source packetErrorRate(packetSentToUpper)
attr title "Packet error rate"
bin	-inf	0
bin	0	0
bin	1	0
statistic networkwireless.accessPoint2.wlan[0].radio bitErrorRate:histogram
field count 0
field mean -nan
field stddev -nan
field min -nan
field max -nan
field sum 0
field sqrsum 0
attr recordingmode histogram
attr source bitErrorRate(packetSentToUpper)
attr title "Bit error rate"
bin	-inf	0
bin	0	0
bin	1	0
statistic networkwireless.accessPoint2.wlan[0].radio symbolErrorRate:histogram
field count 0
field mean -nan
field stddev -nan
field min -nan
field max -nan
field sum 0
field sqrsum 0
attr recordingmode histogram
attr source symbolErrorRate(packetSentToUpper)
attr title "Symbol error rate"
bin	-inf	0
bin	0	0
bin	1	0
par networkwireless.accessPoint2.wlan[0] typename "\"inet.linklayer.ieee80211.Ieee80211Interface\""
par networkwireless.accessPoint2.wlan[0] displayStringTextFormat "\"%a (%i)\\n%m\""
par networkwireless.accessPoint2.wlan[0] recordPcap false
par networkwireless.accessPoint2.wlan[0] numPcapRecorders 0
par networkwireless.accessPoint2.wlan[0] interfaceTableModule "\"networkwireless.accessPoint2.interfaceTable\""
par networkwireless.accessPoint2.wlan[0] energySourceModule "\"\""
par networkwireless.accessPoint2.wlan[0] opMode "\"g(mixed)\""
attr enum a,b,g(erp),g(mixed),n(mixed-2.4Ghz),p,ac
par networkwireless.accessPoint2.wlan[0] address "\"10:00:00:00:00:03\""
attr mutable ""
par networkwireless.accessPoint2.wlan[0] protocol "\"ethernetmac\""
par networkwireless.accessPoint2.wlan[0] bitrate 5.4e+07bps
attr unit bps
scalar networkwireless.accessPoint2.wlan[0] packetDropInterfaceDown:count 0
attr interpolationmode none
attr recordingmode count
attr source packetDropReasonIsInterfaceDown(packetDropped)
attr title "packet drops: interface down, count"
scalar networkwireless.accessPoint2.wlan[0] packetDropInterfaceDown:sum(packetBytes) 0
attr interpolationmode none
attr recordingmode sum(packetBytes)
attr source packetDropReasonIsInterfaceDown(packetDropped)
attr title "packet drops: interface down, sum(packetBytes)"
scalar networkwireless.accessPoint2.wlan[0] packetDropNoCarrier:count 0
attr interpolationmode none
attr recordingmode count
attr source packetDropReasonIsNoCarrier(packetDropped)
attr title "packet drops: no carrier, count"
scalar networkwireless.accessPoint2.wlan[0] packetDropNoCarrier:sum(packetBytes) 0
attr interpolationmode none
attr recordingmode sum(packetBytes)
attr source packetDropReasonIsNoCarrier(packetDropped)
attr title "packet drops: no carrier, sum(packetBytes)"
par networkwireless.accessPoint2.eth[0].mac.phys$o.channel typename "\"ned.IdealChannel\""
par networkwireless.accessPoint2.eth[0].phys$i.channel typename "\"ned.IdealChannel\""
par networkwireless.accessPoint2.eth[0].upperLayerIn.channel typename "\"ned.IdealChannel\""
par networkwireless.accessPoint2.eth[0].mac.upperLayerOut.channel typename "\"ned.IdealChannel\""
par networkwireless.accessPoint2.eth[0].queue typename "\"inet.linklayer.ethernet.common.EthernetQueue\""
par networkwireless.accessPoint2.eth[0].queue displayStringTextFormat "\"contains %p pk (%l) pushed %u\\npulled %o removed %r dropped %d\""
par networkwireless.accessPoint2.eth[0].queue packetCapacity 1000
par networkwireless.accessPoint2.eth[0].queue dataCapacity -1b
attr unit b
par networkwireless.accessPoint2.eth[0].queue dropperClass "\"inet::queueing::PacketAtCollectionEndDropper\""
par networkwireless.accessPoint2.eth[0].queue comparatorClass "\"inet::EthernetFrameTypeComparator\""
par networkwireless.accessPoint2.eth[0].queue bufferModule "\"\""
scalar networkwireless.accessPoint2.eth[0].queue queueLength:last 0
attr autoWarmupFilter false
attr interpolationmode sample-hold
attr recordingmode last
attr source "warmup(atomic(constant0(packetPushEnded) + count(packetPushStarted) - count(packetPulled) - count(packetRemoved) - count(packetDropped)))"
attr title "queue length, last"
attr unit pk
scalar networkwireless.accessPoint2.eth[0].queue queueLength:max 0
attr autoWarmupFilter false
attr interpolationmode sample-hold
attr recordingmode max
attr source "warmup(atomic(constant0(packetPushEnded) + count(packetPushStarted) - count(packetPulled) - count(packetRemoved) - count(packetDropped)))"
attr title "queue length, max"
attr unit pk
scalar networkwireless.accessPoint2.eth[0].queue queueLength:timeavg -nan
attr autoWarmupFilter false
attr interpolationmode sample-hold
attr recordingmode timeavg
attr source "warmup(atomic(constant0(packetPushEnded) + count(packetPushStarted) - count(packetPulled) - count(packetRemoved) - count(packetDropped)))"
attr title "queue length, timeavg"
attr unit pk
scalar networkwireless.accessPoint2.eth[0].queue queueBitLength:last 0
attr autoWarmupFilter false
attr interpolationmode sample-hold
attr recordingmode last
attr source "warmup(atomic(constant0(packetPushEnded) + sum(packetLength(packetPushStarted)) - sum(packetLength(packetPulled)) - sum(packetLength(packetRemoved)) - sum(packetLength(packetDropped))))"
attr title "queue bit length, last"
attr unit b
scalar networkwireless.accessPoint2.eth[0].queue queueBitLength:max 0
attr autoWarmupFilter false
attr interpolationmode sample-hold
attr recordingmode max
attr source "warmup(atomic(constant0(packetPushEnded) + sum(packetLength(packetPushStarted)) - sum(packetLength(packetPulled)) - sum(packetLength(packetRemoved)) - sum(packetLength(packetDropped))))"
attr title "queue bit length, max"
attr unit b
scalar networkwireless.accessPoint2.eth[0].queue queueBitLength:timeavg -nan
attr autoWarmupFilter false
attr interpolationmode sample-hold
attr recordingmode timeavg
attr source "warmup(atomic(constant0(packetPushEnded) + sum(packetLength(packetPushStarted)) - sum(packetLength(packetPulled)) - sum(packetLength(packetRemoved)) - sum(packetLength(packetDropped))))"
attr title "queue bit length, timeavg"
attr unit b
statistic networkwireless.accessPoint2.eth[0].queue queueingTime:histogram
field count 0
field mean -nan
field stddev -nan
field min -nan
field max -nan
field sum 0
field sqrsum 0
attr interpolationmode none
attr recordingmode histogram
attr source queueingTime(packetPulled)
attr title "queueing times"
attr unit s
bin	-inf	0
bin	0	0
bin	1	0
scalar networkwireless.accessPoint2.eth[0].queue outgoingPackets:count 0
attr recordingmode count
attr source packetPulled
attr title "outgoing packets, count"
attr unit pk
scalar networkwireless.accessPoint2.eth[0].queue outgoingPacketLengths:sum 0
attr interpolationmode none
attr recordingmode sum
attr source packetLength(packetPulled)
attr title "outgoing packet lengths, sum"
attr unit b
statistic networkwireless.accessPoint2.eth[0].queue outgoingPacketLengths:histogram
field count 0
field mean -nan
field stddev -nan
field min -nan
field max -nan
field sum 0
field sqrsum 0
attr interpolationmode none
attr recordingmode histogram
attr source packetLength(packetPulled)
attr title "outgoing packet lengths"
attr unit b
bin	-inf	0
bin	0	0
bin	1	0
statistic networkwireless.accessPoint2.eth[0].queue flowQueueingTime:histogram
field count 0
field mean -nan
field stddev -nan
field min -nan
field max -nan
field sum 0
field sqrsum 0
attr interpolationmode none
attr recordingmode histogram
attr source queueingTime(demuxFlow(packetPulled))
attr title "flow queueing times"
attr unit s
bin	-inf	0
bin	0	0
bin	1	0
scalar networkwireless.accessPoint2.eth[0].queue incomingPackets:count 0
attr recordingmode count
attr source packetPushStarted
attr title "incoming packets, count"
attr unit pk
scalar networkwireless.accessPoint2.eth[0].queue incomingPacketLengths:sum 0
attr interpolationmode none
attr recordingmode sum
attr source packetLength(packetPushStarted)
attr title "incoming packet lengths, sum"
attr unit b
statistic networkwireless.accessPoint2.eth[0].queue incomingPacketLengths:histogram
field count 0
field mean -nan
field stddev -nan
field min -nan
field max -nan
field sum 0
field sqrsum 0
attr interpolationmode none
attr recordingmode histogram
attr source packetLength(packetPushStarted)
attr title "incoming packet lengths"
attr unit b
bin	-inf	0
bin	0	0
bin	1	0
scalar networkwireless.accessPoint2.eth[0].queue droppedPacketsQueueOverflow:count 0
attr interpolationmode none
attr recordingmode count
attr source packetDropReasonIsQueueOverflow(packetDropped)
attr title "dropped packets: queue overflow, count"
attr unit pk
scalar networkwireless.accessPoint2.eth[0].queue droppedPacketLengthsQueueOverflow:sum 0
attr interpolationmode none
attr recordingmode sum
attr source packetLength(packetDropReasonIsQueueOverflow(packetDropped))
attr title "dropped packet lengths: queue overflow, sum"
attr unit b
par networkwireless.accessPoint2.eth[0].mac typename "\"inet.linklayer.ethernet.basic.EthernetMac\""
par networkwireless.accessPoint2.eth[0].mac interfaceTableModule "\"networkwireless.accessPoint2.interfaceTable\""
par networkwireless.accessPoint2.eth[0].mac displayStringTextFormat "\"rate: %b\\nsent: %s, rcvd: %r\\nqueue: %q, drop: %d\""
par networkwireless.accessPoint2.eth[0].mac sendRawBytes false
par networkwireless.accessPoint2.eth[0].mac promiscuous true
par networkwireless.accessPoint2.eth[0].mac duplexMode true
par networkwireless.accessPoint2.eth[0].mac mtu 1500B
attr unit B
par networkwireless.accessPoint2.eth[0].mac fcsMode "\"declared\""
attr enum declared,computed
par networkwireless.accessPoint2.eth[0].mac stopOperationExtraTime -1s
attr unit s
par networkwireless.accessPoint2.eth[0].mac stopOperationTimeout 2s
attr unit s
scalar networkwireless.accessPoint2.eth[0].mac "simulated time" 0
scalar networkwireless.accessPoint2.eth[0].mac full-duplex 1
scalar networkwireless.accessPoint2.eth[0].mac "rx channel idle (%)" -nan
scalar networkwireless.accessPoint2.eth[0].mac "rx channel utilization (%)" -nan
scalar networkwireless.accessPoint2.eth[0].mac rxPausePkUnits:count 0
attr interpolationmode none
attr recordingmode count
attr title "pause units received, count"
scalar networkwireless.accessPoint2.eth[0].mac rxPausePkUnits:sum 0
attr interpolationmode none
attr recordingmode sum
attr title "pause units received, sum"
scalar networkwireless.accessPoint2.eth[0].mac txPausePkUnits:count 0
attr interpolationmode none
attr recordingmode count
attr title "pause units sent, count"
scalar networkwireless.accessPoint2.eth[0].mac txPausePkUnits:sum 0
attr interpolationmode none
attr recordingmode sum
attr title "pause units sent, sum"
scalar networkwireless.accessPoint2.eth[0].mac rxPkOk:count 0
attr interpolationmode none
attr recordingmode count
attr source rxPkOk
attr title "packets received OK, count"
scalar networkwireless.accessPoint2.eth[0].mac rxPkOk:sum(packetBytes) 0
attr interpolationmode none
attr recordingmode sum(packetBytes)
attr source rxPkOk
attr title "packets received OK, sum(packetBytes)"
scalar networkwireless.accessPoint2.eth[0].mac txPk:count 0
attr interpolationmode none
attr recordingmode count
attr source packetSentToLower
attr title "packets transmitted, count"
scalar networkwireless.accessPoint2.eth[0].mac txPk:sum(packetBytes) 0
attr interpolationmode none
attr recordingmode sum(packetBytes)
attr source packetSentToLower
attr title "packets transmitted, sum(packetBytes)"
scalar networkwireless.accessPoint2.eth[0].mac packetReceivedFromUpper:count 0
attr interpolationmode none
attr recordingmode count
attr source packetReceivedFromUpper
attr title "packet bytes from higher layer, count"
scalar networkwireless.accessPoint2.eth[0].mac packetReceivedFromUpper:sum(packetBytes) 0
attr interpolationmode none
attr recordingmode sum(packetBytes)
attr source packetReceivedFromUpper
attr title "packet bytes from higher layer, sum(packetBytes)"
scalar networkwireless.accessPoint2.eth[0].mac passedUpPk:count 0
attr interpolationmode none
attr recordingmode count
attr source packetSentToUpper
attr title "packets passed to higher layer, count"
scalar networkwireless.accessPoint2.eth[0].mac passedUpPk:sum(packetBytes) 0
attr interpolationmode none
attr recordingmode sum(packetBytes)
attr source packetSentToUpper
attr title "packets passed to higher layer, sum(packetBytes)"
scalar networkwireless.accessPoint2.eth[0].mac packetDropIncorrectlyReceived:count 0
attr interpolationmode none
attr recordingmode count
attr source packetDropReasonIsIncorrectlyReceived(packetDropped)
attr title "packet drop: incorrectly received, count"
scalar networkwireless.accessPoint2.eth[0].mac packetDropIncorrectlyReceived:sum(packetBytes) 0
attr interpolationmode none
attr recordingmode sum(packetBytes)
attr source packetDropReasonIsIncorrectlyReceived(packetDropped)
attr title "packet drop: incorrectly received, sum(packetBytes)"
scalar networkwireless.accessPoint2.eth[0].mac packetDropInterfaceDown:count 0
attr interpolationmode none
attr recordingmode count
attr source packetDropReasonIsInterfaceDown(packetDropped)
attr title "packet drop: interface down, count"
scalar networkwireless.accessPoint2.eth[0].mac packetDropInterfaceDown:sum(packetBytes) 0
attr interpolationmode none
attr recordingmode sum(packetBytes)
attr source packetDropReasonIsInterfaceDown(packetDropped)
attr title "packet drop: interface down, sum(packetBytes)"
scalar networkwireless.accessPoint2.eth[0].mac packetDropNotAddressedToUs:count 0
attr interpolationmode none
attr recordingmode count
attr source packetDropReasonIsNotAddressedToUs(packetDropped)
attr title "packet drop: not addressed to us, count"
scalar networkwireless.accessPoint2.eth[0].mac packetDropNotAddressedToUs:sum(packetBytes) 0
attr interpolationmode none
attr recordingmode sum(packetBytes)
attr source packetDropReasonIsNotAddressedToUs(packetDropped)
attr title "packet drop: not addressed to us, sum(packetBytes)"
par networkwireless.accessPoint2.eth[0] typename "\"inet.linklayer.ethernet.EthernetInterface\""
par networkwireless.accessPoint2.eth[0] displayStringTextFormat "\"%a (%i)\\n%m\""
par networkwireless.accessPoint2.eth[0] recordPcap false
par networkwireless.accessPoint2.eth[0] numPcapRecorders 0
par networkwireless.accessPoint2.eth[0] interfaceTableModule "\"networkwireless.accessPoint2.interfaceTable\""
par networkwireless.accessPoint2.eth[0] protocol "\"ethernetmac\""
par networkwireless.accessPoint2.eth[0] address "\"0A-AA-00-00-00-0D\""
attr mutable ""
par networkwireless.accessPoint2.eth[0] duplexMode true
par networkwireless.accessPoint2.eth[0] csmacdSupport false
par networkwireless.accessPoint2.eth[0] bitrate 0bps
attr unit bps
par networkwireless.accessPoint2.eth[0] fcsMode "\"declared\""
attr enum declared,computed
scalar networkwireless.accessPoint2.eth[0] packetDropInterfaceDown:count 0
attr interpolationmode none
attr recordingmode count
attr source packetDropReasonIsInterfaceDown(packetDropped)
attr title "packet drops: interface down, count"
scalar networkwireless.accessPoint2.eth[0] packetDropInterfaceDown:sum(packetBytes) 0
attr interpolationmode none
attr recordingmode sum(packetBytes)
attr source packetDropReasonIsInterfaceDown(packetDropped)
attr title "packet drops: interface down, sum(packetBytes)"
scalar networkwireless.accessPoint2.eth[0] packetDropNoCarrier:count 0
attr interpolationmode none
attr recordingmode count
attr source packetDropReasonIsNoCarrier(packetDropped)
attr title "packet drops: no carrier, count"
scalar networkwireless.accessPoint2.eth[0] packetDropNoCarrier:sum(packetBytes) 0
attr interpolationmode none
attr recordingmode sum(packetBytes)
attr source packetDropReasonIsNoCarrier(packetDropped)
attr title "packet drops: no carrier, sum(packetBytes)"
par networkwireless.accessPoint2 typename "\"inet.node.wireless.AccessPoint\""
par networkwireless.accessPoint2 numWlanInterfaces 1
par networkwireless.accessPoint2 hasStatus false
par networkwireless.accessPoint2 fcsMode "\"declared\""
attr enum declared,computed
par networkwireless typename "\"networkwireless\""
